#Put Keywords Here, check Charge and Multiplicity.

 439570

0  1
O           0.50040         1.93750         0.32170
C          -2.57500         0.05860         1.15250
C          -1.61940         1.29140         1.02400
C          -2.50860        -0.83120        -0.13110
C          -2.37500        -0.69750         2.41620
C          -0.35890         1.02320         0.28870
C          -1.15990        -1.02990        -0.63950
C          -0.15020        -0.15010        -0.45170
C          -1.14650        -1.46490         2.63990
C           1.14640        -0.44120        -1.05940
C          -3.32320        -0.67810         3.37450
H          -3.58970         0.48070         1.14960
H          -1.37550         1.68210         2.01870
H          -2.13360         2.09050         0.47830
H          -2.97840        -1.80010         0.06130
H          -3.07870        -0.35060        -0.93200
H          -0.99890        -1.85720        -1.17550
H          -0.26830        -0.83920         2.47970
H          -1.10800        -2.30930         1.95090
H          -1.06840        -1.86780         3.65300
H           1.04950        -0.39520        -2.14700
H           1.92900         0.26090        -0.76380
H           1.48400        -1.44090        -0.77330
H          -3.21130        -1.17670         4.22470
H          -4.16450        -0.16460         3.25930

