#Put Keywords Here, check Charge and Multiplicity.

 6995537

0  1
O           3.43540        -0.83540        -1.15200
C           1.40230         0.21660        -0.29910
C          -0.18170         0.11050        -0.10550
C           2.05290        -0.62200        -1.46130
C           1.99530         1.68320        -0.29330
C           1.95550         0.02870        -2.87420
C           2.70190         2.15030        -1.60060
C           2.03090         1.58120        -2.87370
C          -0.66400        -1.38300        -0.15550
C          -1.00520         0.90750        -1.17230
C          -0.58570         0.65570         1.31510
H           1.80440        -0.25900         0.60250
H           1.63010        -1.62430        -1.51140
H           1.22090         2.41420        -0.06870
H           2.72600         1.77160         0.51640
H           1.02500        -0.28040        -3.35330
H           2.76350        -0.36770        -3.49650
H           3.75050         1.83460        -1.58610
H           2.69790         3.24430        -1.64900
H           2.58500         1.91590        -3.75390
H           1.02510         1.99890        -2.95470
H          -0.59480        -1.78770        -1.16650
H          -1.70930        -1.47970         0.14670
H          -0.06300        -2.00910         0.50810
H          -0.85010         0.50730        -2.17240
H          -2.07470         0.84510        -0.96180
H          -0.74120         1.96430        -1.18310
H          -0.03840         0.13800         2.10500
H          -1.65190         0.51420         1.50670
H          -0.38520         1.72160         1.41270
H           3.77100        -1.43830        -1.84890

