#Put Keywords Here, check Charge and Multiplicity.

 853433

0  1
O          -5.28680        -0.83390        -1.10790
O          -5.91000         1.67300        -0.55460
C          -1.95810         0.54280        -0.38010
C          -4.34020        -0.02830        -0.79780
C          -2.97190        -0.39460        -0.71900
C          -2.36970         1.87360        -0.11700
C          -4.70420         1.30710        -0.51630
C          -3.72030         2.25130        -0.17730
C          -0.58840         0.23980        -0.28330
C          -0.01720        -0.97840        -0.33750
C           1.41120        -1.19390        -0.19730
C          -5.29480        -2.14250        -1.38390
H          -2.72340        -1.36260        -0.91860
H          -1.68740         2.59590         0.13210
H          -3.98340         3.21800         0.03190
H           0.03350         1.00810        -0.14920
H          -0.57370        -1.78600        -0.48290
H           1.87710        -1.19650        -1.18400
H           1.88540        -0.42190         0.41450
H           1.59450        -2.15890         0.28070
H          -6.32380        -2.44650        -1.58140
H          -4.69400        -2.35790        -2.26960
H          -4.91700        -2.71300        -0.53300
H          -6.13440         2.50270        -0.35990

