#Put Keywords Here, check Charge and Multiplicity.

 62433

0  1
O           0.08050        -0.32200         0.02240
O          -1.16880         1.61750        -0.00500
C           3.80100         0.26620         0.01750
C           2.47710        -0.49470         0.03550
C           4.99220        -0.69110        -0.00900
C           1.28480         0.45140         0.01940
C          -3.59070         0.17090         0.02090
C          -2.24980        -0.56130         0.01220
C          -4.76070        -0.81130        -0.01580
C          -1.08090         0.39750         0.00910
C           6.31160         0.06270        -0.06110
C          -6.09620        -0.08570        -0.04610
H           3.86670         0.91280         0.90090
H           3.83660         0.91860        -0.86360
H           2.42010        -1.13800         0.92240
H           2.41440        -1.16880        -0.82810
H           4.97620        -1.32980         0.88170
H           4.92170        -1.35010        -0.88220
H           1.31030         1.07520        -0.88170
H           1.30320         1.09580         0.90620
H          -3.66270         0.80140         0.91600
H          -3.64820         0.84420        -0.84370
H          -2.17610        -1.18900        -0.88290
H          -2.17070        -1.19620         0.90180
H          -4.72490        -1.46570         0.86290
H          -4.68170        -1.45250        -0.90140
H           6.37270         0.68530        -0.95950
H           6.42850         0.70960         0.81420
H           7.14970        -0.64100        -0.07800
H          -6.22150         0.54270         0.84150
H          -6.17670         0.55150        -0.93260
H          -6.91910        -0.80700        -0.07050

