#Put Keywords Here, check Charge and Multiplicity.

 ZINC02504725

0  1
C          -3.28980         6.98440        -1.99720
O          -3.18870         5.53780        -1.92450
C          -2.29860         5.03080        -1.05240
O          -1.62460         5.77600        -0.37050
O          -2.15530         3.69820        -0.93570
C          -1.17630         3.22220         0.02510
C          -1.15580         1.71530         0.01690
C          -0.01260         1.07580         0.00800
H          -2.32550         7.40190        -2.28690
H          -4.04180         7.25940        -2.73680
H          -3.57810         7.37800        -1.02240
H          -1.44240         3.57640         1.02100
H          -0.18990         3.60040        -0.24350
H          -2.08370         1.16270         0.01830
H           0.00210        -0.00410         0.00200
H           0.91530         1.62850         0.00210

