#Put Keywords Here, check Charge and Multiplicity.

 ZINC00388482

0  1
C          -0.01870         1.52580         0.01040
C           0.00210        -0.00410         0.00200
O           0.67090        -0.46490        -1.17370
C           0.77570        -1.79650        -1.33450
O           0.31220        -2.54710        -0.50010
O           1.39390        -2.29640        -2.41980
C           1.46870        -3.71950        -2.52580
C           2.20080        -4.09700        -3.81520
H           1.00390         1.90310         0.00270
H          -0.54590         1.88680        -0.87260
H          -0.52890         1.87730         0.90720
H           0.52930        -0.36510         0.88510
H          -1.02050        -0.38140         0.00980
H           2.01130        -4.11960        -1.66940
H           0.46150        -4.13580        -2.54470
H           3.20800        -3.68060        -3.79630
H           2.25790        -5.18250        -3.89610
H           1.65820        -3.69680        -4.67160

