#Put Keywords Here, check Charge and Multiplicity.

 ZINC00388413

0  1
C          -0.01840         1.50280         0.01030
C           0.00210        -0.00410         0.00200
O           1.05650        -0.59390        -0.01120
O          -1.15110        -0.69100         0.00930
C          -1.05700        -2.11680         0.00080
C          -2.44160        -2.71170         0.01080
C          -3.17260        -3.02130        -1.07510
C          -4.39770        -3.54960        -0.60710
C          -4.34200        -3.53120         0.73680
O          -3.15260        -3.02810         1.10540
H           1.00420         1.88010         0.00260
H          -0.54550         1.86390        -0.87280
H          -0.52860         1.85430         0.90710
H          -0.52890        -2.44070        -0.89600
H          -0.51190        -2.45030         0.88380
H          -2.88010        -2.89090        -2.10650
H          -5.22050        -3.90030        -1.21240
H          -5.12020        -3.86770         1.40580

