#Put Keywords Here, check Charge and Multiplicity.

 ZINC01681744

0  1
C          -0.62880         2.23610         2.45450
C          -1.12680         1.68820         1.14190
O          -2.25920         1.90970         0.78580
C          -0.21150         0.86370         0.27380
O           1.13980         1.28400         0.47230
C           2.11400         0.32960         0.04570
O          -0.56880         1.04120        -1.09840
C          -0.02070         0.05400        -1.97420
H           0.32240         1.95960         2.59170
H          -0.69270         3.32420         2.44160
H          -1.24150         1.84580         3.26710
H          -0.29970        -0.10170         0.51910
H           1.86050        -0.65210         0.44600
H           2.12680         0.28560        -1.04340
H           3.09760         0.62720         0.40890
H          -0.08290        -0.92610        -1.50110
H          -0.58380         0.04340        -2.90740
H           1.02250         0.29160        -2.18190

