#Put Keywords Here, check Charge and Multiplicity.

 ZINC02572615

0  1
C           2.78740         0.86020        -1.46250
C           2.36970         1.12440        -0.01450
C           3.47410         1.90550         0.70040
O           1.14140         1.89860         0.00140
C          -0.01440         1.21010         0.00870
O           0.00210        -0.00410         0.00200
O          -1.18850         1.86690         0.01780
C          -2.39540         1.05960         0.01920
H           3.70940         0.27910        -1.47440
H           2.00060         0.30380        -1.97190
H           2.94960         1.80960        -1.97280
H           2.20740         0.17500         0.49580
H           3.17660         2.09370         1.73200
H           4.39620         1.32430         0.68850
H           3.63640         2.85490         0.19010
H          -2.41590         0.43530        -0.87410
H          -2.40750         0.42570         0.90580
H          -3.26870         1.71180         0.02690

