#Put Keywords Here, check Charge and Multiplicity.

 ZINC00967330

0  1
C          -2.50900         0.98900         0.01920
C          -1.21370         1.75930         0.01730
C          -0.01260         1.07580         0.00800
C           1.17340         1.79400         0.00050
C           1.10630         3.17890         0.00860
C          -0.13170         3.79300         0.02380
N          -1.23950         3.07770         0.03090
C          -0.21670         5.29760         0.03270
H          -2.81640         0.79760         1.04730
H          -3.27860         1.57100        -0.48790
H          -2.36870         0.04110        -0.50050
H           0.00210        -0.00410         0.00200
H           2.12680         1.28680        -0.01170
H           2.01000         3.77020         0.00280
H          -0.24700         5.66590        -0.99270
H          -1.12080         5.60740         0.55690
H           0.65630         5.70780         0.54040

