#Put Keywords Here, check Charge and Multiplicity.

 ZINC00409299

0  1
C           3.98810         2.46290        -1.46460
C           3.56420         2.19240        -0.01960
C           2.27180         1.41740        -0.01200
C           2.29370         0.02640        -0.02010
N           1.15510        -0.65130        -0.01290
C           0.00210        -0.00410         0.00200
C          -0.01670         1.37770         0.00960
N           1.11770         2.05730         0.00240
O           3.47840        -0.63470        -0.03490
C           3.42440        -2.06270        -0.04210
H           4.12930         1.51570        -1.98520
H           3.21400         3.04220        -1.96790
H           4.92290         3.02350        -1.47010
H           3.42290         3.13960         0.50100
H           4.33820         1.61310         0.48370
H          -0.92620        -0.55610         0.00790
H          -0.95990         1.90370         0.01690
H           2.90570        -2.41110         0.85100
H           2.88870        -2.40160        -0.92880
H           4.43750        -2.46460        -0.05390

