#Put Keywords Here, check Charge and Multiplicity.

 1549041

0  1
O           3.11600         4.46500         1.23450
O           1.01110         6.05660         1.27280
C           0.46110         2.06930         0.39260
C           1.96640         3.96330         0.97230
C           1.75080         2.59810         0.65460
C          -0.62360         2.98540         0.44220
C           0.85840         4.83610         1.00440
C          -0.43140         4.34540         0.73630
C           0.18170         0.72670         0.06660
C           0.90520        -0.40500         0.20640
C           2.23800        -0.58390         0.74310
C           4.33120         3.90900         1.30270
H           2.56400         1.99720         0.60450
H          -1.58350         2.67210         0.26410
H          -1.23760         4.97530         0.75610
H          -0.71840         0.56720        -0.33360
H           0.47320        -1.24460        -0.11160
H           2.97220        -0.17810         0.04470
H           2.33760        -0.10910         1.72130
H           2.45680        -1.64840         0.86670
H           5.05140         4.67860         1.57880
H           4.35580         3.12590         2.06240
H           4.62340         3.49180         0.33740
H           0.32160         6.60280         1.30300

