#Put Keywords Here, check Charge and Multiplicity.

 ZINC00409211

0  1
C          -2.75430        -1.42630         1.48870
O          -1.65640        -0.63370         1.03230
C          -1.33240        -0.82810        -0.34580
C           0.14170        -0.48910        -0.57600
S           0.44200         1.24150        -0.12250
C           2.21030         1.48020        -0.44920
O          -2.14870         0.02400        -1.15180
C          -3.50800        -0.40370        -1.25790
H          -3.01160        -1.13810         2.50800
H          -3.61370        -1.26570         0.83780
H          -2.47510        -2.47980         1.46860
H          -1.51290        -1.86800        -0.61830
H           0.38870        -0.63740        -1.62720
H           0.76430        -1.13910         0.03880
H           2.49010         2.50470        -0.20380
H           2.78940         0.78880         0.16290
H           2.41390         1.29050        -1.50310
H          -4.03760        -0.16340        -0.33600
H          -3.98520         0.10650        -2.09460
H          -3.53820        -1.48060        -1.42410

