#Put Keywords Here, check Charge and Multiplicity.

 ZINC01648270

0  1
C          -2.55770         4.16320         0.03680
C          -1.13610         3.59770         0.02700
O          -1.19240         2.14680         0.01940
C          -0.01820         1.49000         0.01020
O           1.02350         2.11050         0.00360
C           0.00210        -0.00410         0.00200
O          -1.03960        -0.62450         0.00860
O           1.17620        -0.66090        -0.01270
C           1.11990        -2.11180        -0.02000
C           2.54150        -2.67720        -0.03660
H          -3.08950         3.82490        -0.85250
H          -3.08100         3.81520         0.92740
H          -2.51540         5.25240         0.04250
H          -0.60430         3.93600         0.91630
H          -0.61280         3.94570        -0.86360
H           0.60090        -2.45970         0.87310
H           0.58390        -2.45010        -0.90670
H           3.06050        -2.32930        -0.92970
H           3.07750        -2.33890         0.85010
H           2.49920        -3.76640        -0.04200

