#Put Keywords Here, check Charge and Multiplicity.

 ZINC01693569

0  1
C          -1.14190        -0.79970         0.31890
O           0.00210        -0.00410         0.00200
P          -0.01980         1.60580         0.01090
O           1.51330         2.09740        -0.00110
C           2.32550         2.14220         1.17380
O          -0.67560         2.07530        -1.38250
C          -2.08610         2.09770        -1.61040
H          -0.88190        -1.85560         0.24470
H          -1.46960        -0.57670         1.33420
H          -1.94670        -0.57370        -0.38060
H           3.31950         2.50690         0.91470
H           1.87160         2.81230         1.90390
H           2.40490         1.14170         1.59900
H          -2.48960         1.09230        -1.48990
H          -2.55950         2.76760        -0.89250
H          -2.28510         2.45030        -2.62240

