#Put Keywords Here, check Charge and Multiplicity.

 ZINC00407006

0  1
C           3.56770         2.06520        -0.02090
C           2.36720         1.11680        -0.01450
O           1.13890         1.89100         0.00130
C          -0.01430         1.20410         0.00870
O           0.00210        -0.00410         0.00200
C          -1.32950         1.93970         0.01890
S          -2.69210         0.74230         0.01890
C          -4.18360         1.77480         0.03150
H           3.54290         2.68890         0.87270
H           4.48980         1.48410        -0.03280
H           3.52590         2.69840        -0.90710
H           2.40910         0.48360         0.87170
H           2.39210         0.49320        -0.90820
H          -1.39150         2.56070         0.91260
H          -1.40000         2.57040        -0.86730
H          -4.18570         2.39920         0.92490
H          -4.19410         2.40890        -0.85500
H          -5.06730         1.13660         0.03230

