#Put Keywords Here, check Charge and Multiplicity.

 ZINC02031158

0  1
C          -0.20020         5.27930         2.51760
C           0.34790         4.83160         1.40690
O           0.54560         3.50020         1.23680
C           1.14490         3.08520         0.00770
C           1.28640         1.56180        -0.00180
O          -0.01100         0.96280         0.00730
H          -0.49230         4.58660         3.29300
H          -0.35750         6.33920         2.65310
H           0.64010         5.52430         0.63160
H           2.12970         3.54210        -0.08880
H           0.51640         3.39690        -0.82650
H           1.84010         1.24280         0.88120
H           1.82310         1.25230        -0.89870
H           0.00210        -0.00410         0.00200

