#Put Keywords Here, check Charge and Multiplicity.

 1715213

0  1
O           1.11810         0.14830        -0.74130
C          -6.26830         4.18790        -2.51880
C          -5.01620         3.59660        -1.87790
C          -7.07230         3.03950        -3.21500
C          -5.89420         5.27620        -3.58590
C          -7.24130         4.89270        -1.50500
C          -2.64470         2.42120        -0.72370
C          -1.42370         1.80260        -0.13190
C          -4.83620         3.48560        -0.47160
C          -3.95770         3.08980        -2.68260
C          -1.19750         0.31090        -0.54160
C          -3.68590         2.90590         0.09300
C          -2.78950         2.54210        -2.12380
C          -2.32780        -0.62850        -0.02940
C           0.11610        -0.12940        -0.09730
H          -7.98700         3.42390        -3.67520
H          -7.35630         2.27380        -2.48780
H          -6.48300         2.56190        -4.00100
H          -6.78970         5.73710        -4.01090
H          -5.29040         6.06640        -3.13410
H          -5.33250         4.85420        -4.42040
H          -8.10710         5.32110        -2.01570
H          -7.62310         4.18800        -0.76280
H          -6.73100         5.70590        -0.98250
H          -1.45440         1.85690         0.96160
H          -0.56860         2.40790        -0.44800
H          -5.54500         3.81390         0.18300
H          -4.02050         3.11150        -3.70230
H          -1.20740         0.23950        -1.63340
H          -3.61720         2.83940         1.11250
H          -2.04480         2.22160        -2.74850
H          -3.28820        -0.33280        -0.45830
H          -2.40950        -0.58780         1.05900
H          -2.12940        -1.66170        -0.32620
H           0.22690        -0.62240         0.75810

