#Put Keywords Here, check Charge and Multiplicity.

 1549660

0  1
O           1.19580        -0.41920         0.13370
C           3.05920         5.11350        -2.00930
C           1.93270         4.33730        -1.32930
C           4.36790         4.26760        -1.88660
C           3.31820         6.51760        -1.35460
C           2.79410         5.38450        -3.53430
C          -0.11720         2.77730        -0.01320
C          -1.15240         1.93900         0.66580
C           1.11120         3.41700        -2.03680
C           1.68560         4.43620         0.06820
C          -0.58140         0.61050         1.25570
C           0.11130         2.65860        -1.40090
C           0.68790         3.68050         0.71360
C          -1.66810        -0.18280         2.03310
C          -0.00900        -0.23330         0.21680
H           5.20980         4.77520        -2.36600
H           4.24930         3.29160        -2.36490
H           4.63050         4.10160        -0.83850
H           4.03260         7.10810        -1.93300
H           2.38990         7.08450        -1.29420
H           3.73350         6.42630        -0.34990
H           3.54290         6.05450        -3.96350
H           2.82630         4.46420        -4.12030
H           1.81740         5.84800        -3.67270
H          -1.96230         1.70320        -0.03290
H          -1.60780         2.51980         1.47470
H           1.22770         3.26580        -3.03740
H           2.23710         5.05880         0.65610
H           0.19870         0.87600         1.97860
H          -0.44020         2.00100        -1.95940
H           0.56150         3.78780         1.72440
H          -2.05800         0.41600         2.85870
H          -1.24760        -1.10180         2.44960
H          -2.50000        -0.44840         1.37580
H          -0.60100        -0.66360        -0.45410

