#Put Keywords Here, check Charge and Multiplicity.

 61021

0  1
O           1.18450         1.19440         0.30920
O           1.18790        -1.18840         0.31080
O          -1.18790         1.18840         0.31040
O          -1.18460        -1.19440         0.30910
C           1.73120         0.00350        -0.24750
C          -0.00320         1.65640        -0.32590
C           0.00320        -1.65640        -0.32600
C          -1.73120        -0.00340        -0.24770
C           3.21090         0.00580         0.11980
C          -0.00690         3.17240        -0.16610
C           0.00700        -3.17240        -0.16620
C          -3.21090        -0.00570         0.12000
H           1.66140         0.00270        -1.34290
H          -0.00310         1.43380        -1.40060
H           0.00330        -1.43370        -1.40060
H          -1.66170        -0.00290        -1.34300
H           3.34000         0.00660         1.20840
H           3.71250        -0.88640        -0.26880
H           3.71000         0.89880        -0.26990
H           0.88430         3.61630        -0.62130
H          -0.90080         3.61180        -0.62030
H          -0.00710         3.45090         0.89420
H          -0.88410        -3.61620        -0.62150
H           0.90100        -3.61160        -0.62040
H           0.00700        -3.45100         0.89410
H          -3.71260         0.88630        -0.26860
H          -3.71000        -0.89880        -0.26950
H          -3.33980        -0.00650         1.20860

