#Put Keywords Here, check Charge and Multiplicity.

 12508

0  1
O           0.45820        -0.68050        -0.21230
O          -0.87520         1.08150        -0.87640
C           1.64270         0.12260        -0.19580
C           1.57640         1.08850         0.97740
C           2.86140        -0.78400        -0.11540
C          -1.80240        -0.77370         0.39190
C          -0.71770         0.00790        -0.31170
C          -3.14330        -0.06230         0.34230
H           1.70100         0.68420        -1.13650
H           2.51810         1.63710         1.08400
H           0.78100         1.83080         0.86450
H           1.38060         0.55330         1.91350
H           3.79060        -0.20630        -0.12220
H           2.87530        -1.47950        -0.96150
H           2.83380        -1.39550         0.79330
H          -1.89270        -1.75260        -0.09040
H          -1.50590        -0.91390         1.43680
H          -3.47060         0.08810        -0.69180
H          -3.90650        -0.65060         0.86090
H          -3.08450         0.92090         0.82110

