#Put Keywords Here, check Charge and Multiplicity.

 12375

0  1
O           1.79360         0.29200        -0.01040
O          -1.79360        -0.29200        -0.01050
C           0.59360        -0.47180        -0.00010
C          -0.59360         0.47190        -0.00010
C           2.94260        -0.54350         0.01130
C          -2.94260         0.54330         0.01140
C           4.18320         0.32400        -0.00080
C          -4.18310        -0.32400        -0.00080
H           0.55360        -1.12300        -0.88170
H           0.55940        -1.11280         0.88920
H          -0.55360         1.12300        -0.88180
H          -0.55950         1.11310         0.88910
H           2.93430        -1.16190         0.91580
H           2.94150        -1.19810        -0.86730
H          -2.93430         1.16190         0.91590
H          -2.94150         1.19810        -0.86720
H           5.08890        -0.28860         0.01540
H           4.20160         0.95810        -0.89330
H           4.19400         0.99370         0.86540
H          -5.08880         0.28870         0.01540
H          -4.20150        -0.95820        -0.89340
H          -4.19410        -0.99380         0.86540

