#Put Keywords Here, check Charge and Multiplicity.

 29746

0  1
O           0.15980        -0.76440        -1.48740
C          -0.38280         0.92520         0.15790
C           0.05660        -0.56020        -0.06500
C           1.44850        -0.83580         0.58570
C           0.63470         1.89190        -0.51780
C          -1.78150         1.15820        -0.48090
C          -1.01970        -1.54520         0.44970
C           2.44100         0.33990         0.41640
C           2.05160         1.32990        -0.67170
C          -2.84080         0.17330         0.01360
C          -2.39830        -1.27440        -0.15800
C          -0.47810         1.29440         1.66260
C           2.10880        -2.13290         0.09490
H           1.29940        -0.96310         1.66710
H           0.68530         2.83130         0.04820
H           0.28930         2.18090        -1.51890
H          -1.71360         1.06750        -1.57310
H          -2.12280         2.18230        -0.28290
H          -1.08820        -1.50640         1.54270
H          -0.75070        -2.57590         0.19080
H           3.45580        -0.02780         0.22000
H           2.51510         0.88210         1.36720
H           2.76800         2.16010        -0.69030
H           2.14380         0.83890        -1.64850
H          -3.77320         0.33590        -0.53970
H          -3.07260         0.36520         1.06720
H          -3.13730        -1.94030         0.30260
H          -2.38130        -1.52170        -1.22670
H           0.49460         1.28160         2.15990
H          -0.88110         2.30680         1.78720
H          -1.13180         0.61960         2.22150
H           3.02380        -2.33370         0.66370
H           1.45180        -2.99660         0.22920
H           2.38590        -2.07030        -0.96250
H           0.24560        -1.71740        -1.65700

