#Put Keywords Here, check Charge and Multiplicity.

 40489606

0  1
O          -2.77020         3.62660        -7.44780
O           1.52210        -0.12670        -0.51110
C          -2.93970         1.71070        -2.41420
C          -0.58310         0.68740        -1.11620
C          -2.34010         2.52530        -1.34300
C          -1.39090         1.77870        -0.36240
C          -3.89190         2.35580        -3.32750
C          -3.17170         3.09770        -4.49030
C          -1.59420        -0.27890        -1.80060
C          -4.16680         3.81710        -5.44690
C          -3.53480         4.55610        -6.67550
C          -2.59990         0.41440        -2.59450
C          -2.58440         5.71580        -6.25470
C          -4.65930         5.11620        -7.59690
C           0.33550        -0.01890        -0.23970
H          -0.00220         1.18290        -1.90520
H          -1.77080         3.33720        -1.80400
H          -3.13940         2.97790        -0.75010
H          -0.71490         2.49940         0.10790
H          -1.98750         1.31640         0.43130
H          -4.58140         1.62060        -3.75530
H          -4.50970         3.06970        -2.77500
H          -2.49600         3.84080        -4.06360
H          -2.57240         2.37670        -5.05490
H          -1.04040        -0.95370        -2.45720
H          -2.10850        -0.88890        -1.05280
H          -4.87050         3.06710        -5.81940
H          -4.74130         4.54150        -4.86210
H          -3.04430        -0.11270        -3.31420
H          -1.72310         5.33870        -5.70200
H          -2.20560         6.24490        -7.13250
H          -3.11190         6.43340        -5.62390
H          -5.31040         4.31220        -7.94460
H          -4.23270         5.60500        -8.47500
H          -5.27020         5.84520        -7.06040
H           0.00780        -0.41720         0.60750
H          -3.39910         2.91560        -7.69290

