#Put Keywords Here, check Charge and Multiplicity.

 7150

0  1
O          -2.62450         2.46310         0.01080
O          -2.72230         0.39380        -0.05400
C          -0.61260         1.29420        -0.05660
C           0.03910         0.03860         0.06050
C           0.20140         2.44830        -0.19680
C           1.44270        -0.05430         0.07990
C           1.60490         2.35390        -0.19880
C           2.22620         1.10410        -0.04850
C          -2.00940         1.38830        -0.02830
C          -2.89220         3.18450         1.10670
H          -0.50160        -0.82740         0.14100
H          -0.21820         3.37550        -0.29670
H           1.89290        -0.96660         0.18720
H           2.17410         3.19520        -0.31120
H           3.24520         1.03760        -0.03330
H          -3.56250         3.99400         0.82360
H          -1.98340         3.62240         1.52850
H          -3.39330         2.58050         1.86790

