#Put Keywords Here, check Charge and Multiplicity.

 5357002

0  1
O           1.01700         2.07260         0.78620
O          -0.16000         2.90210        -0.78490
C           3.26880         2.13800         1.59410
C           4.69420         2.11420         1.15300
C           2.30050         2.12120         0.38150
C           5.38220         3.31790         0.86030
C           5.38020         0.88600         0.98070
C           6.70640         3.29170         0.38200
C           6.70410         0.86210         0.50170
C          -0.96050         1.05430         0.23150
C          -0.00960         2.03490         0.06880
C           7.36520         2.06400         0.19320
C          -2.37210         1.41860         0.02100
C          -0.56010        -0.20210         0.54940
C          -1.41940        -1.34950         0.76070
H           3.07610         3.03220         2.19500
H           3.05960         1.27670         2.23620
H           2.51260         1.24140        -0.23560
H           2.47070         3.01730        -0.22280
H           4.91890         4.22200         0.98850
H           4.91550        -0.00070         1.19650
H           7.18950         4.16590         0.16720
H           7.18530        -0.03000         0.37340
H           8.32220         2.04510        -0.17030
H          -2.63480         2.29960         0.61210
H          -2.54260         1.65000        -1.03480
H          -3.07610         0.63460         0.29710
H           0.41290        -0.38730         0.65770
H          -2.07260        -1.16550         1.61470
H          -2.02110        -1.54500        -0.12830
H          -0.83140        -2.24430         0.97270

