#Put Keywords Here, check Charge and Multiplicity.

 7148

0  1
O          -2.68830         2.23440        -0.11360
C          -2.93300        -0.01640         0.01710
C          -0.67090         1.17450        -0.01050
C          -2.08210         1.17130        -0.04110
C           0.10400        -0.01780         0.01950
C           0.04350         2.40530        -0.01750
C          -3.11930        -0.53390         1.46070
C           1.51100         0.01760         0.02060
C           1.44900         2.44450        -0.00870
C           2.18370         1.24940         0.00130
H          -2.53530        -0.81120        -0.61570
H          -3.92890         0.21030        -0.37900
H          -0.33570        -0.93910         0.03800
H          -0.45040         3.30180        -0.03070
H          -3.67210        -1.47450         1.45000
H          -3.68780         0.19270         2.04450
H          -2.15910        -0.70390         1.94910
H           2.04420        -0.85500         0.03530
H           1.93570         3.34420        -0.01080
H           3.20530         1.27530        -0.00320

