#Put Keywords Here, check Charge and Multiplicity.

 7997

0  1
O           0.04210        -0.31790        -0.22110
O           2.17760        -0.41450        -0.16050
C          -1.66120         0.17820        -1.75840
C          -0.30530         0.59540        -1.13950
C          -2.22840         1.22490        -2.74350
C           1.10010        -0.39660         0.42060
C           1.06260        -0.53670         1.85660
H          -1.53310        -0.77130        -2.28740
H          -2.39130         0.02100        -0.95890
H           0.44650         0.66690        -1.93270
H          -0.40020         1.57300        -0.65720
H          -3.17600         0.86840        -3.15240
H          -1.53370         1.39210        -3.56900
H          -2.40620         2.17270        -2.23120
H           0.12490        -0.14970         2.26200
H           1.88640         0.01670         2.31240
H           1.15000        -1.58980         2.12640

