#Put Keywords Here, check Charge and Multiplicity.

 7770

0  1
O           0.07770        -0.41210        -0.29180
O           2.21980        -0.33740        -0.20350
C           1.07890        -0.48910         1.80660
C           1.12930        -1.95730         2.30990
C          -1.69390         0.15630        -1.77280
C          -0.34160         0.54800        -1.13100
C           1.13500        -0.40370         0.36240
C           1.07390        -2.06960         3.85210
C          -2.21060         1.24550        -2.74160
H           1.90820         0.08240         2.23670
H           0.15160        -0.02090         2.14990
H           2.05220        -2.42990         1.96340
H           0.28600        -2.51680         1.89500
H          -1.57410        -0.78060        -2.32260
H          -2.43860        -0.00530        -0.98890
H           0.39400         0.70760        -1.92630
H          -0.46790         1.48540        -0.57850
H           1.91940        -1.54290         4.30170
H           1.12050        -3.12080         4.15260
H           0.14380        -1.64100         4.23400
H          -3.15910         0.93990        -3.18550
H          -1.48850         1.41040        -3.54370
H          -2.36320         2.18540        -2.20750

