#Put Keywords Here, check Charge and Multiplicity.

 7803

0  1
O           0.07590        -0.38740        -0.27210
O           2.21740        -0.32490        -0.16690
C          -1.68680         0.16550        -1.77270
C          -0.33420         0.55950        -1.12970
C          -2.21830         1.24460        -2.74630
C           1.07720        -0.52610         1.83470
C           1.13010        -0.39950         0.39020
C           1.13360        -1.99490         2.30670
H          -1.56510        -0.77160        -2.32410
H          -2.43150         0.00770        -0.98680
H           0.40630         0.69930        -1.92200
H          -0.45920         1.50360        -0.59080
H           0.15440        -0.07300         2.20440
H           1.90850         0.02330         2.28560
H          -3.16780         0.92190        -3.18040
H          -1.50710         1.41080        -3.55780
H          -2.38260         2.18670        -2.21950
H           1.09020        -2.03170         3.39740
H           2.06090        -2.47110         1.98130
H           0.28420        -2.55330         1.90810

