#Put Keywords Here, check Charge and Multiplicity.

 448893

0  1
O          -1.20320         2.50220        -0.33530
O           0.39460         1.49560         0.56270
C          -1.16780         0.16640        -0.56690
C          -1.57630        -0.77020         0.61610
C          -0.16710        -0.52390        -1.53460
C          -2.72800        -0.20700         1.48440
C          -0.63400         1.44160        -0.09650
H          -2.07370         0.35660        -1.15370
H          -0.71070        -0.96590         1.25640
H          -1.90790        -1.73250         0.21650
H           0.07630         0.14340        -2.36450
H           0.75470        -0.79180        -1.01550
H          -0.60700        -1.43200        -1.95320
H          -3.60710        -0.01380         0.86750
H          -3.00080        -0.92860         2.25810
H          -2.42490         0.72080         1.97030
H          -1.94490         2.51570        -0.80980

