#Put Keywords Here, check Charge and Multiplicity.

 7047

0  1
N          -0.63910         1.16260         0.15330
C           1.44590        -0.02070        -0.03490
C           0.02290        -0.01010        -0.03850
C           2.13150        -1.23850        -0.23420
C           2.12600         1.19910         0.16970
C          -0.68990        -1.20960        -0.24000
C           1.41190        -2.43120        -0.43460
C           0.00490        -2.41710        -0.43750
C           1.40330         2.38960         0.36430
C          -0.00150         2.34570         0.35180
H           3.15380        -1.26850        -0.23530
H           3.14780         1.22950         0.17860
H          -1.71370        -1.21090        -0.24410
H           1.91460        -3.31000        -0.57830
H          -0.51120        -3.28630        -0.58350
H           1.89510         3.27390         0.51270
H          -0.54480         3.19960         0.49120

