#Put Keywords Here, check Charge and Multiplicity.

 638014

0  1
O          -0.11440         3.26480         0.39190
C          -2.97680        -0.37580        -1.11750
C          -3.60300        -1.77400        -0.71120
C          -2.72430        -3.02970        -0.96580
C          -1.47550        -0.40390        -1.09850
C          -1.47540        -2.74490        -1.82290
C          -0.76690        -1.53060        -1.40850
C          -3.44460         0.01850        -2.56260
C          -3.59900         0.69160        -0.13470
C          -0.81500         0.76840        -0.84130
C           0.70330        -1.60660        -1.37920
C          -0.20800         1.03820         0.32860
C           0.45710         2.19410         0.55630
C           1.85070         2.19280         0.94980
H          -3.84230        -1.78880         0.35720
H          -4.56130        -1.91390        -1.22080
H          -2.39210        -3.43800        -0.00550
H          -3.31770        -3.80510        -1.45810
H          -0.84050        -3.63520        -1.76370
H          -1.76190        -2.63430        -2.87110
H          -3.08900        -0.69440        -3.30650
H          -4.53560         0.04480        -2.62430
H          -3.07540         1.00880        -2.83940
H          -3.31560         1.71150        -0.40750
H          -3.26510         0.51320         0.89170
H          -4.69160         0.64480        -0.14540
H          -0.79880         1.44390        -1.57500
H           1.15960        -0.70510        -1.78920
H           1.09520        -2.43940        -1.96830
H           1.03760        -1.74030        -0.34830
H          -0.22440         0.36030         1.05840
H           2.47110         2.24240         0.05160
H           2.07460         3.05520         1.58350
H           2.11140         1.28830         1.50740

