#Put Keywords Here, check Charge and Multiplicity.

 7991

0  1
O           3.21100         4.01830         1.61940
O           1.12280         4.13490         1.48770
C           2.05850         1.16150         0.83970
C           2.08090        -0.02280        -0.16260
C           2.16240         2.54350         0.14280
C           1.97240        -1.39550         0.53920
C           2.16720         3.62010         1.11640
H           1.12980         1.11990         1.41960
H           2.89720         1.05050         1.53620
H           3.01300         0.00420        -0.73580
H           1.24790         0.07950        -0.86350
H           1.32420         2.67380        -0.55020
H           3.08230         2.58800        -0.44750
H           1.03800        -1.46210         1.10040
H           1.98910        -2.19410        -0.20540
H           2.80970        -1.54050         1.22460
H           3.97980         3.64760         1.40850

