#Put Keywords Here, check Charge and Multiplicity.

 61096

0  1
O           0.67320         0.64420        -0.34620
O           1.08620        -0.56490         1.37470
C          -3.20680         2.53360        -2.80680
C          -4.63610         2.23070        -3.33320
C          -2.58630         1.31810        -2.06310
C          -5.27060         3.43530        -4.07710
C          -1.15730         1.59190        -1.52180
C          -6.69790         3.13270        -4.60270
C          -0.57100         0.37330        -0.76630
C          -7.31940         4.34020        -5.34210
C           1.42640        -0.11040         0.28900
C           2.73800        -0.41900        -0.24300
C           3.80470         0.59160         0.22540
H          -3.25150         3.38750        -2.12460
H          -2.56540         2.80480        -3.65050
H          -4.59070         1.37630        -4.01500
H          -5.27610         1.95820        -2.48870
H          -3.23550         1.04950        -1.22510
H          -2.54690         0.46770        -2.74980
H          -5.31920         4.29060        -3.39630
H          -4.63340         3.70870        -4.92360
H          -0.50050         1.84470        -2.35890
H          -1.18760         2.44870        -0.84320
H          -6.66300         2.28260        -5.29090
H          -7.34840         2.86440        -3.76460
H          -0.54460        -0.48640        -1.44480
H          -1.22030         0.12980         0.08220
H          -8.32120         4.08140        -5.69340
H          -7.39500         5.19890        -4.67110
H          -6.70660         4.61470        -6.20370
H           2.70510        -0.41460        -1.33620
H           3.03950        -1.42290         0.06990
H           4.77580         0.31390        -0.18650
H           3.87800         0.59510         1.31550
H           3.55410         1.59820        -0.11900

