#Put Keywords Here, check Charge and Multiplicity.

 7658

0  1
O           0.75040         0.27110        -0.80730
O           1.47250         0.37200         1.20610
C          -0.92430         1.21410        -2.18690
C          -0.54500         0.61440        -0.81420
C          -2.36400         1.59050        -2.19960
C           2.01930        -1.51370        -0.02660
C           3.47480        -1.37510        -0.54040
C           1.37630        -0.22720         0.14220
C          -2.77550         2.87060        -1.75750
C          -3.35030         0.65370        -2.59130
C           4.17230        -2.74070        -0.71840
C          -4.14180         3.20670        -1.71480
C          -4.71580         0.99360        -2.54730
C          -5.11340         2.27060        -2.11190
H          -0.71220         0.48270        -2.97570
H          -0.29760         2.09190        -2.38220
H          -1.16060        -0.27320        -0.62990
H          -0.74690         1.35470        -0.03310
H           2.01250        -2.04870         0.92700
H           1.44030        -2.10790        -0.73870
H           4.05640        -0.77710         0.16780
H           3.47190        -0.85850        -1.50540
H          -2.08100         3.55930        -1.45260
H          -3.07790        -0.28500        -2.89840
H           4.20930        -3.27360         0.23290
H           5.19260        -2.59100        -1.07370
H           3.63570        -3.35010        -1.44770
H          -4.43050         4.13050        -1.38640
H          -5.42190         0.30850        -2.82400
H          -6.10550         2.51470        -2.07670

