#Put Keywords Here, check Charge and Multiplicity.

 5283335

0  1
O           1.57630        -1.26460         5.45740
C          -3.96170         2.60630         5.02440
C          -5.38680         1.99680         5.08930
C          -2.89230         1.58020         4.56560
C          -6.45500         3.02380         5.54920
C          -1.46770         2.19210         4.50210
C          -7.87670         2.41950         5.61210
C          -0.47640         1.20410         4.10490
C           0.14300         0.38880         4.97830
C           1.03240        -0.56320         4.61700
H          -3.96680         3.45090         4.33030
H          -3.69130         2.97890         6.01580
H          -5.66050         1.62030         4.09960
H          -5.38310         1.15460         5.78680
H          -2.88980         0.73680         5.26330
H          -3.16010         1.20610         3.57190
H          -6.19550         3.40020         6.54280
H          -6.46970         3.86970         4.85630
H          -1.20660         2.62840         5.47190
H          -1.46700         3.00780         3.77320
H          -8.58950         3.18000         5.93840
H          -8.18050         2.05860         4.62700
H          -7.90630         1.58880         6.32060
H          -0.28050         1.11920         3.13080
H          -0.07000         0.48100         5.94590
H           1.26510        -0.71620         3.66360

