#Put Keywords Here, check Charge and Multiplicity.

 62335

0  1
O           1.78380        -1.90330         1.13170
O          -0.21380        -2.06530         1.95790
C           2.17300        -1.17660        -1.12050
C           1.71380        -0.81440         0.33350
C           2.21660         0.08680        -2.05630
C           3.16630         1.37870        -0.02210
C           2.60550         0.30260         0.97210
C           2.30490         1.44970        -1.31330
C           1.41250        -2.40680        -1.74610
C           4.67540         1.18000        -0.35240
C          -0.12420        -2.21690        -1.91900
C           2.06270        -2.87740        -3.07920
C           0.93300        -2.47780         1.83510
C           1.30990        -3.67260         2.55380
H           3.21170        -1.50700        -1.00930
H           0.69120        -0.42100         0.27040
H           3.07920        -0.00460        -2.72390
H           1.33700         0.13130        -2.69870
H           3.09220         2.35710         0.46520
H           3.43830        -0.15990         1.51180
H           1.99610         0.81030         1.72680
H           1.29380         1.76050        -1.03400
H           2.69670         2.21670        -1.98670
H           1.53310        -3.24670        -1.05440
H           5.27020         1.22370         0.56150
H           5.02820         1.96830        -1.02130
H           4.85470         0.21640        -0.83140
H          -0.59690        -1.95930        -0.97050
H          -0.57940        -3.14540        -2.27140
H          -0.35060        -1.43480        -2.64390
H           3.12070        -3.09810        -2.92320
H           1.57730        -3.78510        -3.44290
H           1.97590        -2.11030        -3.85010
H           2.33730        -3.97250         2.32970
H           0.64660        -4.49450         2.27750
H           1.23090        -3.49940         3.62860

