#Put Keywords Here, check Charge and Multiplicity.

 12729

0  1
O           7.47290        -8.39430        -5.97120
O           5.51530        -9.11330        -6.16810
C           4.55540        -4.73620        -2.72770
C           4.06460        -3.27680        -2.53670
C           4.90220        -5.04750        -4.20770
C           3.70020        -2.95270        -1.06490
C           5.38560        -6.50740        -4.41490
C           3.21060        -1.49120        -0.89090
C           5.68250        -6.82370        -5.90600
C           2.84000        -1.15980         0.57790
C           6.25890        -8.14970        -6.06260
C           2.42710         0.22540         0.72720
C           8.49950        -7.88320        -6.66720
C           3.29390         1.22700         0.92720
C           9.81530        -8.48890        -6.14290
H           3.77380        -5.42360        -2.39080
H           5.44310        -4.89850        -2.10830
H           4.85140        -2.59290        -2.86970
H           3.18380        -3.11360        -3.16560
H           4.01620        -4.87740        -4.82620
H           5.68800        -4.36170        -4.53950
H           2.91250        -3.63520        -0.73290
H           4.58050        -3.11530        -0.43620
H           4.61450        -7.19470        -4.05220
H           6.28900        -6.66590        -3.81750
H           2.33290        -1.33310        -1.52560
H           3.99980        -0.81390        -1.22950
H           6.36120        -6.07140        -6.31240
H           4.75300        -6.76270        -6.48070
H           2.01920        -1.80790         0.89780
H           3.69120        -1.37100         1.23280
H           1.45930         0.44520         0.65810
H           8.55600        -6.79670        -6.55620
H           8.39040        -8.12810        -7.72890
H           2.97150         2.16150         1.01290
H           4.26920         1.05410         0.98930
H           9.79250        -9.57680        -6.22960
H          10.65550        -8.10510        -6.72310
H           9.96010        -8.21880        -5.09500

