#Put Keywords Here, check Charge and Multiplicity.

 74008

0  1
O          -0.20520         0.17070        -0.31940
O           2.36460         2.49560         0.35250
O           1.30830         0.08700         1.18540
C          -2.19310        -2.52890        -1.96980
C          -1.88070        -1.19810        -1.23610
C          -3.70040        -2.64470        -2.32340
C          -0.39550        -1.05470        -0.83140
C          -4.05380        -3.95470        -3.06110
C           0.82300         0.63110         0.20250
C           1.39540         1.78500        -0.28130
C           1.09960         2.41860        -1.48880
C           1.90680         3.54000        -1.57520
C           2.67750         3.56400        -0.42040
H          -1.60330        -2.57850        -2.89020
H          -1.90710        -3.36940        -1.33030
H          -2.48940        -1.13970        -0.32900
H          -2.15490        -0.36110        -1.88500
H          -4.29190        -2.59430        -1.40420
H          -3.98820        -1.80170        -2.95870
H          -0.15190        -1.82490        -0.09300
H           0.24640        -1.19290        -1.70800
H          -3.50520        -4.02040        -4.00280
H          -3.80560        -4.81910        -2.44200
H          -5.12250        -3.97600        -3.27790
H           0.42320         2.10920        -2.18930
H           1.93430         4.21310        -2.34420
H           3.37450         4.27520        -0.19180

