#Put Keywords Here, check Charge and Multiplicity.

 61005

0  1
O          -1.34410        -0.27440         0.14070
O          -3.81200        -0.34670         1.47920
O           0.55250         0.50320         0.73120
C           0.25740         0.06150        -1.53420
C           0.26300        -1.39250        -2.08500
C          -0.57370         1.01850        -2.43360
C          -0.19500         0.09550        -0.14840
C          -1.69140        -1.28230         0.95640
C          -3.22610        -1.43490         0.95340
C          -5.05220        -0.04930         1.51610
C          -5.93270        -0.19560         0.41580
C          -5.56130         0.45450         2.73080
C          -7.30220         0.10590         0.55160
C          -6.93120         0.74790         2.86990
C          -7.80300         0.56870         1.78140
H           1.29390         0.41550        -1.57480
H           0.88250        -2.03640        -1.45590
H           0.67570        -1.41350        -3.09570
H          -0.74800        -1.80660        -2.11580
H          -0.52240         2.04140        -2.05270
H          -0.17500         1.01960        -3.45100
H          -1.62230         0.71330        -2.47290
H          -1.33680        -1.11380         1.97910
H          -1.25550        -2.21720         0.58960
H          -3.49410        -2.30600         1.55980
H          -3.55220        -1.61610        -0.07410
H          -5.58340        -0.51250        -0.49070
H          -4.93690         0.59300         3.52880
H          -7.93590        -0.01190        -0.24300
H          -7.29240         1.08490         3.76500
H          -8.79920         0.77550         1.88540

