#Put Keywords Here, check Charge and Multiplicity.

 5371102

0  1
O           2.04370        -4.18360        -0.24990
O           0.07320        -7.53080        -1.59710
O           2.23370        -6.14060        -0.89790
C           2.89250        -1.96620        -0.13800
C           2.10120        -3.03130        -0.94460
C           2.56200        -0.59870        -0.52290
C           0.69320        -0.20380         1.09590
C           1.59810         0.17160         0.01860
C           0.07560        -5.42640        -0.54260
C           1.47090        -5.24070        -0.57550
C          -0.57260        -6.57360        -1.09270
C          -0.74900        -4.44390         0.06530
C           1.27200         0.11380         2.49300
C          -1.98140        -6.67560        -1.09170
C          -2.15050        -4.54990         0.06940
C          -2.76750        -5.65970        -0.52520
H           3.96120        -2.12560        -0.30800
H           2.72660        -2.10750         0.93310
H           2.59860        -3.19340        -1.90700
H           1.09150        -2.66540        -1.14900
H           3.09630        -0.20240        -1.26430
H          -0.24220         0.35010         0.98040
H           0.43660        -1.26300         1.03740
H           1.49430         1.09190        -0.34750
H          -0.34250        -3.62800         0.52510
H           0.58700        -0.24480         3.26360
H           1.39950         1.19150         2.61660
H           2.23780        -0.37420         2.63560
H          -2.44490        -7.49140        -1.50360
H          -2.71660        -3.81780         0.50300
H          -3.78740        -5.73280        -0.53820
H          -0.34010        -8.24560        -1.90530

