#Put Keywords Here, check Charge and Multiplicity.

 5362830

0  1
O           2.42740         1.95490         1.07420
O           2.31120        -0.05860         1.64190
C          -0.22510         0.35230        -0.14190
C           1.31830         0.39660        -0.39050
C           3.91490         6.16870         2.12250
C           3.73470         7.35610         1.12920
C          -0.98820        -0.06590        -1.43060
C          -0.79410         1.69290         0.40800
C           4.08050         4.87760         1.42720
C           2.08220         0.78860         0.79060
C           2.98520         4.17460         1.05270
C           2.93110         2.92930         0.29990
C           3.74990         8.65610         1.79870
C           5.43220         4.41140         1.12870
C           4.73480         9.58670         1.76590
C           5.98680         9.38310         1.03960
C           4.57300        10.84760         2.49130
H          -0.42240        -0.41980         0.60920
H           1.53210         1.06490        -1.22510
H           1.65450        -0.59560        -0.70920
H           4.77460         6.36460         2.77390
H           3.04380         6.13500         2.78640
H           4.49710         7.29440         0.34990
H           2.76770         7.25170         0.62350
H          -0.62230        -1.02810        -1.79630
H          -2.05660        -0.16830        -1.22320
H          -0.85750         0.68080        -2.21850
H          -0.38640         1.90520         1.39760
H          -1.87940         1.63700         0.51030
H          -0.54510         2.52200        -0.25810
H           2.09720         4.54880         1.30020
H           3.90520         2.61680        -0.08080
H           2.28860         3.11530        -0.56200
H           2.93530         8.86050         2.33460
H           6.20860         5.05490         1.54630
H           5.58410         4.37790         0.04980
H           5.58180         3.41290         1.54230
H           6.47360         8.46600         1.37590
H           6.69550        10.20090         1.19130
H           5.78970         9.31460        -0.03150
H           3.53480        11.06110         2.75640
H           4.92570        11.68760         1.88890
H           5.15890        10.80450         3.41120

