#Put Keywords Here, check Charge and Multiplicity.

 6008212

0  1
O           1.25490        -2.34950        -0.71170
O          -0.07130        -3.12690         0.71510
C           3.17590        -1.93340        -2.00300
C           1.61880        -2.07460        -1.98570
C           3.77450        -1.48950        -3.36880
C           5.32370        -1.37430        -3.35480
C           1.04780        -3.14610        -2.97190
C           5.88960        -0.99370        -4.75060
C           1.58580        -4.58110        -2.75480
C           7.43370        -0.98990        -4.80400
C           0.15230        -2.26720        -0.12460
C          -0.75190        -1.25090        -0.28750
C          -2.10970        -1.61820        -0.70100
C          -0.34870         0.01670        -0.03840
C          -1.16300         1.20980        -0.15250
H           3.63440        -2.87700        -1.69430
H           3.45820        -1.18730        -1.25440
H           1.20980        -1.10090        -2.28040
H           3.49920        -2.21540        -4.13630
H           3.34560        -0.52170        -3.64460
H           5.62650        -0.61900        -2.62410
H           5.75020        -2.33370        -3.04830
H          -0.03950        -3.17460        -2.87090
H           1.24680        -2.84640        -4.00360
H           5.52950        -1.70720        -5.49710
H           5.52330        -0.00130        -5.02820
H           1.07150        -5.27010        -3.42530
H           2.65250        -4.63150        -2.97610
H           1.41800        -4.90200        -1.72460
H           7.76470        -0.71670        -5.80800
H           7.84050        -0.26820        -4.09300
H           7.82790        -1.98130        -4.56930
H          -2.08120        -2.20970        -1.61850
H          -2.58570        -2.21460         0.07970
H          -2.75410        -0.76040        -0.89260
H           0.59000         0.16960         0.26080
H          -1.53550         1.32350        -1.17120
H          -2.00470         1.16140         0.53870
H          -0.57460         2.09650         0.09170

