#Put Keywords Here, check Charge and Multiplicity.

 637513

0  1
O           0.81230        -0.14270        -1.07840
O           3.81860        -0.19970        -0.48230
O           1.29950         1.02890         0.63900
C           2.69080        -0.76250         0.17940
C           2.53250        -2.23980        -0.25340
C           1.53400         0.07390        -0.09140
C          -0.48710        -0.47690        -1.05950
C          -0.96950        -0.75840        -2.49440
H           2.89650        -0.75640         1.25370
H           1.67190        -2.69360         0.24160
H           3.42690        -2.79950         0.02100
H           2.39870        -2.31120        -1.33470
H          -1.09260         0.32500        -0.62550
H          -0.63480        -1.38570        -0.46660
H          -2.02690        -1.02820        -2.48610
H          -0.83740         0.12450        -3.12240
H          -0.40000        -1.58650        -2.92100
H           4.58140        -0.74700        -0.20130

