#Put Keywords Here, check Charge and Multiplicity.

 2214

0  1
O           0.21380         1.37300        -1.38990
O          -0.40960         0.80020         1.13600
O           3.81420        -3.29430        -0.84180
C           2.28210        -1.60640        -0.82630
C           0.75470         0.35600        -0.82870
C           1.66950        -0.50630        -1.48150
C           1.92760        -1.82820         0.52970
C           0.41690         0.08420         0.51510
C           1.00580        -1.00030         1.18970
C           3.19830        -2.44910        -1.48070
C           3.47330        -2.40350        -2.90800
C           0.40250         1.91770        -2.60090
H           1.88780        -0.31510        -2.45850
H           2.33390        -2.60450         1.05980
H           0.76910        -1.19250         2.16700
H           2.55070        -2.55150        -3.47210
H           4.17970        -3.17820        -3.21710
H           3.89930        -1.43560        -3.17510
H          -0.28310         2.75720        -2.71020
H           1.42660         2.28720        -2.70640
H           0.19200         1.19780        -3.39590
H          -0.61300         0.61500         1.97310

