#Put Keywords Here, check Charge and Multiplicity.

 440030

0  1
O           3.31330        -2.23480         2.81280
O           2.78740        -0.34260        -0.53840
O           4.50600        -2.32470         1.08560
C           2.61300         0.19880         0.77160
C           3.81450        -0.19600         1.67570
C           2.44220         1.73240         0.65800
C           3.90200        -1.63530         1.89500
C           3.42670        -2.06700         4.14050
C           2.46680        -3.02240         4.87470
H           1.69040        -0.21600         1.19030
H           4.74500         0.15430         1.21640
H           3.72160         0.31790         2.63500
H           1.59360         1.96180         0.01250
H           3.33870         2.18770         0.23340
H           2.25620         2.16750         1.64120
H           3.17250        -1.04730         4.43850
H           4.45170        -2.28260         4.45600
H           1.96670        -0.11280        -1.02320
H           2.70180        -4.05860         4.62570
H           1.43360        -2.81280         4.59070
H           2.56000        -2.89130         5.95500

