#Put Keywords Here, check Charge and Multiplicity.

 12613

0  1
O          -0.24280         1.02750         2.86640
O          -0.79030         2.24510         4.48680
C          -1.06060        -1.37920         0.05840
C          -0.53180        -0.86210         1.43730
C           1.88390         3.51470         3.08230
C          -0.78470         0.64590         1.69780
C           0.35720         3.33980         2.79020
C          -2.60440        -1.24990        -0.07030
C          -0.62290        -2.85010        -0.19890
C           2.72600         2.25720         2.72760
C           2.44460         4.75630         2.32790
C          -0.25980         2.16010         3.38890
H          -0.60770        -0.77290        -0.73260
H          -0.98980        -1.44580         2.24100
H           0.54740        -1.03120         1.48430
H           2.00630         3.70340         4.15460
H          -0.35100         1.21410         0.87020
H          -1.86190         0.83520         1.73010
H           0.19870         3.32360         1.71100
H          -0.16500         4.22780         3.16050
H          -2.96480        -1.72670        -0.98430
H          -2.90150        -0.20050        -0.11540
H          -3.09850        -1.71830         0.78390
H          -0.96960        -3.18770        -1.17900
H           0.46490        -2.93580        -0.18320
H          -1.03810        -3.51250         0.56310
H           3.78730         2.43820         2.91390
H           2.42560         1.40650         3.34180
H           2.59520         1.99470         1.67570
H           3.48700         4.93570         2.60250
H           1.87280         5.65230         2.57770
H           2.39470         4.60470         1.24660

