#Put Keywords Here, check Charge and Multiplicity.

 8792

0  1
O           0.67860         0.27260        -0.70780
O           2.33680         0.72660         0.50020
C           0.42990        -1.34920         2.09990
C           1.39590        -1.36290         0.87060
C           0.37370        -2.75640         2.75900
C          -1.00910        -0.86510         1.75400
C          -0.71320         0.45630        -2.62270
C           1.48470        -0.08640         0.17070
C           0.39640        -0.32500        -1.87760
C          -1.02710        -0.17910        -3.93290
C          -1.99180        -1.21110        -4.02060
C          -0.33050         0.19670        -5.10640
C          -2.22400        -1.87700        -5.23920
C          -0.56250        -0.46930        -6.32510
C          -1.49840        -1.51600        -6.38700
H           0.84250        -0.65770         2.84340
H           1.08970        -2.14620         0.17500
H           2.39770        -1.63890         1.21280
H           1.37510        -3.09640         3.03010
H          -0.23070        -2.72990         3.66780
H          -0.06580        -3.48120         2.07040
H          -0.99780         0.17110         1.41590
H          -1.65040        -0.91200         2.63560
H          -1.44580        -1.48470         0.96830
H          -0.39050         1.49060        -2.77030
H          -1.60660         0.48900        -1.99170
H           1.30120        -0.35240        -2.49300
H           0.04920        -1.35060        -1.71970
H          -2.52170        -1.49200        -3.19170
H           0.36110         0.95040        -5.07660
H          -2.91570        -2.62880        -5.28850
H          -0.04550        -0.19700        -7.16460
H          -1.64970        -2.01520        -7.26550

