#Put Keywords Here, check Charge and Multiplicity.

 11094753

0  1
O          -2.15370         2.30770         0.14980
C           1.25990         0.29000         2.13740
C          -0.14650         0.55680         1.53540
C           1.20600        -0.13550         3.63000
C          -0.08480         0.99900         0.04640
C           2.61580        -0.39710         4.22680
C          -1.48260         1.27800        -0.57600
C           2.56740        -0.82340         5.71850
C          -1.38990         1.68220        -2.06670
C           3.97340        -1.08320         6.30560
H           1.86330         1.19860         2.04860
H           1.74790        -0.50000         1.55940
H          -0.74860        -0.35370         1.61260
H          -0.63740         1.33940         2.12130
H           0.60610        -1.04550         3.71880
H           0.71520         0.65290         4.20770
H           0.40770         0.21240        -0.53330
H           0.52250         1.90550        -0.03230
H           3.21500         0.51340         4.13800
H           3.10780        -1.18450         3.64880
H          -2.09230         0.37280        -0.50660
H           2.08350        -0.03890         6.30700
H           1.97380        -1.73640         5.81870
H          -0.80430         2.59690        -2.18070
H          -2.39040         1.85360        -2.46840
H          -0.91830         0.88660        -2.64690
H           4.58350        -0.17930         6.24940
H           4.47380        -1.88420         5.75750
H           3.88670        -1.37990         7.35300
H          -1.54570         3.07640         0.13080

