#Put Keywords Here, check Charge and Multiplicity.

 7463

0  1
C           0.17970        -0.52420         0.83540
C           1.41810        -0.13580         0.08490
C           0.42820        -1.73800         1.77040
C          -1.02070        -0.76670        -0.11810
C           2.01410         1.13320         0.28010
C           2.02670        -1.02020        -0.83800
C           3.78380         0.61460        -1.33540
C           3.17920         1.50340        -0.41920
C           3.18930        -0.65120        -1.53770
C           5.00640         0.99830        -2.08270
H          -0.12170         0.30010         1.49100
H          -0.46910        -1.95490         2.35380
H           0.69010        -2.63150         1.20160
H           1.23970        -1.51410         2.46530
H          -1.92330        -0.97940         0.45860
H          -0.83490        -1.60970        -0.78570
H          -1.20410         0.12460        -0.72090
H           1.60360         1.80400         0.93560
H           1.62820        -1.94550        -1.01200
H           3.58170         2.42960        -0.25270
H           3.59990        -1.31750        -2.19870
H           5.61880         0.12110        -2.30360
H           5.61910         1.69430        -1.50580
H           4.72260         1.47400        -3.02320

