#Put Keywords Here, check Charge and Multiplicity.

 443160

0  1
C          -2.81890        -0.10660        -0.33590
C          -4.00730        -0.16470        -1.37780
C          -1.99390         1.23120        -0.42310
C          -1.90260        -1.25670        -0.40570
C          -4.89610        -1.44400        -1.26250
C          -4.95300         1.07410        -1.29980
C          -0.67800         1.16510         0.20210
C          -0.02270        -0.00520         0.36450
C          -0.60460        -1.17240        -0.06100
C           1.30960        -0.03230         0.97090
H          -3.26660        -0.14090         0.66400
H          -3.57270        -0.17060        -2.38160
H          -1.83850         1.49970        -1.47080
H          -2.55560         2.04110         0.05060
H          -2.23570        -2.14600        -0.68850
H          -4.33000        -2.34890        -1.47450
H          -5.71240        -1.41320        -1.98720
H          -5.32610        -1.52750        -0.26360
H          -4.41220         1.99740        -1.50400
H          -5.74800         1.00020        -2.04750
H          -5.41320         1.14570        -0.31090
H          -0.25800         2.01980         0.49480
H          -0.05020        -1.99850        -0.11920
H           2.06940         0.08270         0.19500
H           1.43760         0.77010         1.70170
H           1.49580        -0.97200         1.49700

