#Put Keywords Here, check Charge and Multiplicity.

 442482

0  1
C          -2.74350        -0.10340        -0.16620
C          -3.64720        -0.14590         1.12440
C          -1.94400         1.23890        -0.36270
C          -1.86290        -1.27010        -0.24930
C          -4.61100        -1.37320         1.13760
C          -2.84570        -0.07130         2.45840
C          -0.55150         1.17310         0.06200
C           0.10720         0.00260         0.20840
C          -0.53500        -1.18550        -0.04970
C           1.51180         0.02230         0.61240
H          -3.42470        -0.16080        -1.02180
H          -4.29550         0.73830         1.09410
H          -1.93040         1.49590        -1.42710
H          -2.44310         2.06270         0.15510
H          -2.26110        -2.15850        -0.44940
H          -5.15330        -1.44640         0.19200
H          -5.34660        -1.27620         1.93900
H          -4.05780        -2.30190         1.29220
H          -2.24460         0.83890         2.49530
H          -3.52810        -0.05820         3.31140
H          -2.18190        -0.93220         2.56200
H          -0.07990         2.03390         0.22560
H          -0.00490        -2.02680        -0.10270
H           2.12210         0.36810        -0.22420
H           1.66040         0.70000         1.45690
H           1.87600        -0.96120         0.91780

