#Put Keywords Here, check Charge and Multiplicity.

 6994293

0  1
O           0.08680         2.53920         1.51790
C           1.48180         2.30110         1.33280
C           1.69270         1.38180         0.09370
C           2.18470         3.68550         1.22820
C           0.97430         0.00820         0.20780
C           3.73000         3.63080         1.17280
C           1.24440        -0.91330        -1.00220
H           1.84520         1.78840         2.22870
H           2.76130         1.19540        -0.03340
H           1.33080         1.89920        -0.79890
H           1.81860         4.21270         0.34260
H           1.90440         4.27940         2.10290
H           1.30830        -0.50060         1.11560
H          -0.10430         0.16580         0.28530
H           4.13760         4.64120         1.24270
H           4.12210         3.04020         2.00280
H           4.06770         3.19440         0.23220
H           0.88190        -0.45170        -1.92290
H           0.72680        -1.86500        -0.86450
H           2.31370        -1.11240        -1.10250
H          -0.19610         3.01190         0.70600

