#Put Keywords Here, check Charge and Multiplicity.

 6276

0  1
O           1.26110         0.09610        -0.08660
C          -1.66170         1.23050         2.09630
C          -0.80640         0.30620         1.19050
C          -2.98880         0.57190         2.55850
C           0.51100         0.97890         0.74030
C          -3.82770         1.50690         3.45970
H          -1.89610         2.14670         1.54660
H          -1.07630         1.50070         2.97990
H          -1.38460         0.03540         0.30290
H          -0.56510        -0.61030         1.73580
H          -3.58700         0.30280         1.68360
H          -2.76790        -0.34260         3.11570
H           1.11690         1.23930         1.60970
H           0.29570         1.88640         0.17380
H          -4.74950         1.00480         3.76060
H          -4.08920         2.41990         2.92130
H          -3.26740         1.77230         4.35820
H           2.06850         0.60040        -0.32110

