#Put Keywords Here, check Charge and Multiplicity.

 6584

0  1
O           0.40710        -0.05500        -0.94050
O           1.67940         0.97200         0.44510
C           2.20210        -1.22170        -0.04690
C           1.37730        -0.04510        -0.16670
C          -0.87220         0.20580        -0.64750
H           1.61690        -2.12110        -0.24870
H           2.61510        -1.30190         0.96090
H           3.02180        -1.16760        -0.76380
H          -1.45170         0.14520        -1.56950
H          -0.99780         1.20650        -0.22600
H          -1.26170        -0.53660         0.05430

