#Put Keywords Here, check Charge and Multiplicity.

 61384

0  1
O           1.04110        -0.33990        -1.00630
O           2.03690         0.85670         0.46510
C           2.58210        -2.20300         1.03200
C           2.48040        -3.36780         2.04910
C           1.35070        -1.26350         1.09600
C           3.70790        -4.31470         2.01460
C          -0.13790        -0.12100        -3.04410
C           1.47140        -0.18180         0.14510
C           0.10920         0.40430        -1.61230
C           3.59620        -5.46700         3.03850
C          -1.17510         0.71020        -3.71280
C          -0.81060         1.88240        -4.41800
C          -2.54750         0.38280        -3.59540
C          -1.79630         2.70280        -4.99750
C          -3.53000         1.20630        -4.17660
C          -3.15670         2.36510        -4.88110
H           2.66310        -2.61670         0.02150
H           3.48630        -1.62270         1.24030
H           2.38620        -2.94740         3.05400
H           1.57890        -3.94790         1.83180
H           1.24090        -0.85360         2.10430
H           0.44370        -1.83360         0.87490
H           4.61420        -3.74340         2.23280
H           3.80770        -4.74630         1.01520
H          -0.45470        -1.16950        -2.99810
H           0.80220        -0.08890        -3.60660
H          -0.82790         0.35110        -1.04580
H           0.43530         1.44850        -1.66490
H           4.48070        -6.10450         2.97840
H           3.52320        -5.06950         4.05280
H           2.71430        -6.07650         2.83130
H           0.17580         2.14930        -4.49910
H          -2.83610        -0.45050        -3.07290
H          -1.52490         3.55210        -5.49680
H          -4.51910         0.96800        -4.07940
H          -3.87180         2.96440        -5.29900

