#Put Keywords Here, check Charge and Multiplicity.

 11124

0  1
O           1.49200         1.08300        -0.49420
O           2.29760        -0.72560         0.20140
C          -0.01030        -0.67560         0.08100
C          -0.54230        -0.42380         1.50890
C           1.30510        -0.08500        -0.11380
C           1.10620         1.66490        -1.63480
H          -0.72480        -0.26570        -0.63530
H           0.03730        -1.75430        -0.09580
H          -1.55090        -0.83230         1.60610
H          -0.58100         0.64900         1.71750
H           0.10020        -0.90750         2.24910
H           1.44540         2.70080        -1.61690
H           0.02090         1.66800        -1.74570
H           1.55900         1.17020        -2.49770

