#Put Keywords Here, check Charge and Multiplicity.

 61229

0  1
O          -4.95670         2.36280         0.19060
O          -2.80290         3.75050         0.52620
O           1.01770         0.41100         0.06570
O          -6.58300         1.03270        -0.40650
C          -2.66380         2.48770         0.33450
C          -3.84440         1.71980         0.16290
C          -1.28080         0.45030         0.08700
C          -1.40020         1.84530         0.29000
C          -3.72820         0.31810        -0.00930
C          -2.46870        -0.30370        -0.04290
C          -0.04670        -0.18640         0.00000
C          -6.16630         2.10220         0.01720
C          -1.91060         4.72020         0.75840
C          -7.14190         3.12770         0.30480
H          -0.55250         2.40450         0.40710
H          -4.55160        -0.27490        -0.11170
H          -2.43230        -1.32040        -0.16700
H           0.00050        -1.16890        -0.13250
H          -2.44550         5.65860         0.89500
H          -1.34650         4.51460         1.66980
H          -1.22220         4.82780        -0.08210
H          -7.74200         3.32650        -0.58580
H          -7.80420         2.79340         1.10770
H          -6.66480         4.06340         0.60990

