#Put Keywords Here, check Charge and Multiplicity.

 460

0  1
O          -0.19490         0.04400         0.71070
O          -1.18460         0.29480        -1.73550
C           0.56700        -0.20640        -0.28840
C           0.01160        -0.06950        -1.58350
C           1.92520        -0.59850        -0.16840
C           0.79670        -0.32510        -2.72680
C           2.70580        -0.85060        -1.31140
C           2.14080        -0.71390        -2.59000
C           0.04270         0.00330         2.02660
H           2.36010        -0.69740         0.75140
H           0.39460        -0.22700        -3.66340
H           3.68360        -1.13360        -1.21160
H           2.70860        -0.89520        -3.42010
H          -0.86570         0.29510         2.55270
H           0.31670        -1.00690         2.33960
H           0.83830         0.70010         2.29700
H          -1.52200         0.40680        -2.54250

