#Put Keywords Here, check Charge and Multiplicity.

 7363

0  1
S           1.38490         0.68580        -0.41540
O          -1.54580        -0.72570         0.89470
C          -0.25240        -1.10720         0.74900
C           0.54760        -0.91150        -0.47010
C           0.17870        -1.70330         1.93270
C          -0.89050        -1.67740         2.81300
C          -1.94340        -1.06850         2.14380
H          -0.10340        -0.94250        -1.34550
H           1.29600        -1.70020        -0.56630
H           1.10630        -2.08660         2.11910
H          -0.90080        -2.03880         3.76860
H          -2.87410        -0.90550         2.53130
H           2.07360         0.39070         0.72240

