#Put Keywords Here, check Charge and Multiplicity.

 12180

0  1
O           1.33420         1.39690         2.09420
O           3.00880         0.47040         1.23960
C           0.47070        -0.77090        -0.16490
C           1.17060         0.61530        -0.15640
C          -0.34420        -1.01360        -1.45610
C           1.86110         0.86970         1.09970
C           0.74380         2.59500         2.20930
H           1.22260        -1.56180        -0.07500
H          -0.20890        -0.84870         0.69020
H           0.42770         1.39330        -0.34190
H           1.88910         0.65590        -0.97930
H          -0.80290        -2.00390        -1.42610
H           0.30260        -0.95640        -2.33420
H          -1.13580        -0.26700        -1.54920
H           0.39920         2.70790         3.23960
H          -0.12280         2.69330         1.55160
H           1.45510         3.39660         1.99290

