#Put Keywords Here, check Charge and Multiplicity.

 443135

0  1
O           1.98890         4.75380        -1.02140
C           2.34810         3.59200        -0.27040
C           1.16590         2.76700         0.11800
C           3.17650         4.00190         0.96900
C           1.28480         1.35840         0.20950
C          -0.08090         3.35850         0.43940
C           0.19320         0.56620         0.61080
C          -1.17510         2.56540         0.83280
C          -1.03870         1.16920         0.91840
H           3.00000         3.00990        -0.92710
H           2.57120         4.59350         1.65740
H           3.53980         3.11560         1.49310
H           4.04110         4.59640         0.66780
H           2.17310         0.89900        -0.00770
H          -0.20400         4.37190         0.39540
H           0.29510        -0.44850         0.68070
H          -2.07020         3.00470         1.05910
H          -1.83250         0.59290         1.20690
H           1.46170         5.31480        -0.41440

