#Put Keywords Here, check Charge and Multiplicity.

 7058147

0  1
O          -1.97780         1.57590         2.69180
O           0.01190         1.91500         4.95720
O           0.27250         3.47490         3.58540
C           0.02690         1.82700         1.29720
C          -0.45990         0.87440         0.16960
C          -0.55580         1.47680         2.69790
C           0.11210         1.24240        -1.22580
C          -0.39920         0.31000        -2.34880
C          -0.07750         2.32050         3.78660
C          -0.94300         1.36020         5.72110
C          -0.34680         0.95380         7.08290
H           1.11970         1.77990         1.34740
H          -0.25630         2.85160         1.03630
H          -0.16110        -0.14860         0.41860
H          -1.55170         0.90770         0.11590
H          -0.28980         0.43920         2.92330
H          -0.16910         2.26970        -1.47470
H           1.20310         1.18580        -1.19530
H           0.02670         0.61670        -3.30490
H          -0.10460        -0.72250        -2.15150
H          -1.48750         0.36190        -2.41990
H          -2.28480         0.86840         2.08670
H          -1.36300         0.46660         5.25050
H          -1.74740         2.08250         5.88590
H           0.43020         0.19870         6.94240
H          -1.12700         0.53770         7.72230
H           0.08650         1.82480         7.57920

