#Put Keywords Here, check Charge and Multiplicity.

 61235

0  1
O          -1.39830         1.56090        -5.32870
C           0.72920         1.60340        -1.30000
C           0.39620         2.01210        -2.75920
C           1.13550         2.81560        -0.41860
C          -0.01900         0.80380        -3.63910
C           1.46080         2.41960         1.04750
C          -0.26680         1.21420        -5.01230
C           1.85760         3.62880         1.92690
C           0.78450         1.25050        -6.01940
C           0.93130        -0.10880        -6.73870
H           1.55220         0.88380        -1.31610
H          -0.14440         1.11600        -0.85780
H          -0.41790         2.74520        -2.74820
H           1.27730         2.48770        -3.19920
H           2.01470         3.29480        -0.85920
H           0.31670         3.54040        -0.41570
H           0.76560         0.04090        -3.61470
H          -0.92440         0.35170        -3.22310
H           0.58670         1.93990         1.49600
H           2.28540         1.70170         1.05600
H           2.07250         3.29350         2.94390
H           2.74950         4.11600         1.52700
H           1.04330         4.35560         1.96680
H           0.55900         2.02030        -6.76450
H           1.74150         1.51720        -5.55920
H           1.73610        -0.05930        -7.47620
H           0.00420        -0.37030        -7.25570
H           1.16990        -0.89370        -6.01880

