#Put Keywords Here, check Charge and Multiplicity.

 5281168

0  1
O           1.07130        -4.18150        -2.14660
C           1.40360        -0.56650         2.23830
C           1.93740        -0.58840         0.78000
C           2.30100         0.26680         3.17880
C           1.07470        -1.36540        -0.09860
C           1.47170        -2.46620        -0.76270
C           0.65500        -3.19500        -1.55670
H           0.39530        -0.14280         2.25900
H           1.34850        -1.58820         2.62480
H           2.96340        -0.97040         0.78470
H           1.97650         0.43320         0.39630
H           1.89190         0.25900         4.19170
H           2.35360         1.30030         2.83180
H           3.30890        -0.15150         3.20700
H           0.13510        -1.05130        -0.19740
H           2.41410        -2.76990        -0.66710
H          -0.29930        -2.95060        -1.68070

