#Put Keywords Here, check Charge and Multiplicity.

 8012

0  1
S           1.80500         3.96310         1.31660
C           2.01310         1.51350         0.02230
C           1.38530         0.15030        -0.37510
C           1.05100         2.38680         0.86100
C           2.35270        -0.72050        -1.20720
H           2.28990         2.05780        -0.88460
H           2.92400         1.33310         0.59870
H           0.47670         0.32140        -0.95950
H           1.10710        -0.40120         0.52770
H           0.14620         2.59870         0.29170
H           0.77240         1.86190         1.77510
H           2.62650        -0.20490        -2.13030
H           1.87440        -1.66760        -1.46480
H           3.25910        -0.93100        -0.63530
H           2.00330         4.32750         0.02000

