#Put Keywords Here, check Charge and Multiplicity.

 16666

0  1
O           2.05350         2.73710        -1.03810
C           1.29840         0.53800        -0.29600
C           2.10500         1.83120         0.06920
C           1.97670        -0.11320        -1.56630
C           4.23330         0.34640        -0.37130
C           3.58670         1.52110         0.44060
C           3.51040         0.12950        -1.73170
C           1.03790        -0.44400         0.92150
C           5.76120         0.53990        -0.55300
C           0.11000        -1.64430         0.54930
C           0.40880         0.27070         2.16020
H           0.30250         0.87710        -0.60530
H           1.63260         2.37180         0.88980
H           1.80370        -1.18560        -1.60170
H           1.48860         0.29460        -2.45660
H           4.10640        -0.57790         0.20080
H           3.63700         1.27030         1.50330
H           4.16510         2.43870         0.31130
H           3.66920         1.01420        -2.35730
H           3.95330        -0.71880        -2.26360
H           1.98900        -0.86820         1.25020
H           6.24400         0.62880         0.42090
H           6.19580        -0.31510        -1.07310
H           5.97170         1.44170        -1.13010
H           0.57690        -2.30890        -0.17510
H          -0.11300        -2.25500         1.42780
H          -0.83190        -1.28130         0.13460
H           1.10120         0.98900         2.59760
H           0.16590        -0.44380         2.95020
H          -0.50670         0.79170         1.87240
H           2.57290         3.52120        -0.76120

