#Put Keywords Here, check Charge and Multiplicity.

 7969

0  1
S          -0.88190        -1.52750        -0.00190
C          -0.01210        -0.02090         0.00140
C          -0.71360         1.20170         0.00070
C           1.39750        -0.01710         0.00070
C          -0.00890         2.42220        -0.00020
C           2.10210         1.20340        -0.00020
C           1.39860         2.42240        -0.00020
H          -1.73530         1.21070        -0.00040
H           1.91620        -0.89740        -0.00040
H          -0.51980         3.30780        -0.00010
H           3.12450         1.20370        -0.00010
H           1.91000         3.30810         0.00010
H          -0.92970        -1.61040         1.35600

