#Put Keywords Here, check Charge and Multiplicity.

 798

0  1
N          -0.36700         1.29570        -0.29420
C           0.09750         0.03610        -0.31840
C           1.43700         0.05030         0.06720
C           1.77250         1.37140         0.32830
C          -0.54560        -1.16860        -0.65310
C           2.19370        -1.13200         0.13640
C           0.62300         2.12130         0.09260
C           0.20010        -2.36680        -0.58910
C           1.55930        -2.34840        -0.19740
H          -1.26970         1.57020        -0.51860
H           2.68110         1.72490         0.63280
H          -1.52870        -1.17520        -0.93570
H           3.17630        -1.11050         0.42060
H           0.54280         3.13430         0.19610
H          -0.24690        -3.25370        -0.82800
H           2.08810        -3.22110        -0.15480

