#Put Keywords Here, check Charge and Multiplicity.

 11552

0  1
O           1.25750         0.03290         0.19770
C          -1.14560         2.00590        -0.67980
C          -0.49140         0.68580        -1.19930
C          -1.67940         2.86930        -1.85800
C          -2.27280         1.75440         0.36190
C           0.09720        -0.12310        -0.15220
H          -0.36450         2.59220        -0.18480
H           0.29060         0.92980        -1.92480
H          -1.23990         0.08310        -1.71960
H          -0.87550         3.09920        -2.55960
H          -2.07900         3.81500        -1.48520
H          -2.47260         2.34550        -2.39610
H          -1.88270         1.21840         1.22810
H          -2.68150         2.70340         0.71520
H          -3.08280         1.16760        -0.07650
H          -0.45040        -0.81040         0.30710

