#Put Keywords Here, check Charge and Multiplicity.

 637516

0  1
O           1.37100         4.76020        -0.61690
C           2.19620         3.67820        -0.17710
C           1.55110         2.35530        -0.42310
C           3.57290         3.75020        -0.87770
C           0.72190         2.14160        -1.55080
C           1.78950         1.26570         0.44910
C           0.13710         0.88340        -1.78900
C           1.21100         0.00510         0.20630
C           0.38120        -0.18610        -0.91110
H           2.35010         3.82190         0.89660
H           4.04620         4.71590        -0.68720
H           4.22830         2.96380        -0.49520
H           3.45980         3.62350        -1.95750
H           0.54500         2.90230        -2.21110
H           2.39680         1.38220         1.26410
H          -0.46040         0.74240        -2.60510
H           1.39890        -0.77520         0.83740
H          -0.04060        -1.10130        -1.08680
H           1.87730         5.57640        -0.41750

