#Put Keywords Here, check Charge and Multiplicity.

 1715134

0  1
O          -3.60190         4.88920         3.14650
O           1.30210         0.08650         0.25040
C          -2.84100         3.08190         0.81170
C          -2.22460         1.76350         0.26050
C          -3.96160         2.83490         1.86350
C          -1.04460         1.94750        -0.75520
C          -4.60950         4.11960         2.48420
C          -0.44590         0.57250        -1.21000
C          -1.47260         2.76860        -2.00980
C          -5.66010         3.71660         3.56210
C          -5.27890         5.03470         1.41570
C           0.18520        -0.19760        -0.15750
H          -2.04880         3.67840         1.26750
H          -3.26410         3.64890        -0.01860
H          -3.01340         1.17670        -0.21680
H          -1.86210         1.18260         1.11170
H          -4.74880         2.23530         1.39770
H          -3.53750         2.23570         2.67400
H          -0.24860         2.51170        -0.25670
H           0.30780         0.73480        -1.98790
H          -1.23840        -0.03400        -1.65820
H          -0.66960         2.80080        -2.74940
H          -2.35410         2.32370        -2.47630
H          -1.70000         3.80160        -1.74410
H          -6.08460         4.60280         4.04120
H          -6.47320         3.14430         3.10860
H          -5.19620         3.10360         4.33920
H          -5.97810         4.45980         0.80600
H          -4.53260         5.48500         0.76060
H          -5.82620         5.85150         1.89040
H          -3.27150         4.31830         3.87160
H          -0.28880        -0.96990         0.25040

