#Put Keywords Here, check Charge and Multiplicity.

 1550260

0  1
O           1.06870         5.14640        -4.55700
O           1.05270        -0.00540         0.65410
C          -0.50330         3.10810        -2.88440
C          -1.60220         2.73550        -1.84400
C          -1.02730         3.98630        -4.06270
C          -1.12170         1.91590        -0.59390
C           0.02550         4.37630        -5.16010
C          -0.54030         0.51140        -0.97010
C          -2.29700         1.77120         0.42250
C          -0.62190         5.28430        -6.24860
C           0.66170         3.12980        -5.84460
C          -0.03940        -0.24270         0.16010
H           0.31170         3.62890        -2.37680
H          -0.10580         2.18790        -3.30490
H          -2.38560         2.16880        -2.35450
H          -2.05030         3.66850        -1.48980
H          -1.84550         3.44780        -4.54850
H          -1.44720         4.90480        -3.64250
H          -0.33350         2.49670        -0.10050
H           0.28350         0.61820        -1.67580
H          -1.31500        -0.07870        -1.46750
H          -1.95900         1.30490         1.35050
H          -3.09750         1.15750         0.00290
H          -2.71020         2.74690         0.68290
H           0.12300         5.60190        -6.98180
H          -1.41380         4.75060        -6.77600
H          -1.04970         6.18300        -5.80130
H          -0.11820         2.44490        -6.18550
H           1.31820         2.60270        -5.15370
H           1.26670         3.41860        -6.70610
H           0.62720         5.95790        -4.22450
H          -0.60710        -0.93580         0.58230

