#Put Keywords Here, check Charge and Multiplicity.

 2724161

0  1
O          -2.17710         0.39660        -2.36360
C          -2.63230         0.15200        -1.02640
C          -4.21320         0.23240        -1.01400
C          -2.10570        -1.26560        -0.60330
C          -1.95190         1.20050        -0.08480
C          -0.60970        -1.34130        -0.15100
C           0.14190        -0.08480        -0.16630
C          -0.50260         1.09780        -0.10670
C          -4.79370         1.62810        -1.38880
C          -4.89080        -0.83890        -1.91880
C           1.59910        -0.12900        -0.27800
H          -4.54620         0.03130         0.00820
H          -2.23690        -1.95480        -1.44170
H          -2.72370        -1.64580         0.21570
H          -2.20890         2.21400        -0.39940
H          -2.30500         1.06200         0.94200
H          -0.10160        -2.07660        -0.78190
H          -0.56670        -1.72090         0.87500
H           0.01900         1.94650        -0.08830
H          -4.47910         2.39010        -0.67730
H          -5.88470         1.60600        -1.37220
H          -4.47710         1.92620        -2.38790
H          -4.63370        -1.84460        -1.59300
H          -5.97720        -0.75430        -1.86550
H          -4.58520        -0.71720        -2.95910
H          -2.45360         1.31400        -2.56950
H           1.87770        -0.13400        -1.33440
H           2.07660         0.72770         0.20280
H           2.00290        -1.03080         0.18620

