#Put Keywords Here, check Charge and Multiplicity.

 5325830

0  1
O          -4.06030         0.16140        -0.89230
C          -2.63680         0.10430        -1.03730
C          -2.28290         0.29320        -2.57520
C          -2.14370        -1.26000        -0.44890
C          -2.02600         1.19630        -0.09030
C          -0.58880        -1.33770        -0.40850
C           0.09450        -0.07990        -0.06850
C          -0.58210         1.08310         0.06880
C          -2.91170        -0.80840        -3.48620
C          -2.64690         1.70200        -3.13720
C           1.54790        -0.12340         0.08400
H          -1.19870         0.20390        -2.69820
H          -2.54730        -2.10520        -1.00830
H          -2.51940        -1.36700         0.57510
H          -2.28710         2.19820        -0.43560
H          -2.46490         1.10590         0.90890
H          -0.23050        -1.66630        -1.38770
H          -0.30880        -2.10760         0.31450
H          -0.08950         1.91720         0.29950
H          -2.48860        -1.78860        -3.26470
H          -2.70170        -0.61290        -4.53950
H          -3.99490        -0.85130        -3.35380
H          -2.01520         2.47220        -2.69220
H          -2.47940         1.74850        -4.21560
H          -3.69290         1.94060        -2.93880
H          -4.22910         0.04260         0.06780
H           2.00850        -0.26110        -0.89680
H           1.96120         0.78890         0.52570
H           1.83860        -0.96250         0.72230

