#Put Keywords Here, check Charge and Multiplicity.

 6992611

0  1
O          -0.58040         1.13300         1.59160
C           2.14630         1.18860         2.85240
C           1.65990         0.17050         1.78480
C           3.22200         0.58910         3.79590
C           0.56580         0.73910         0.83830
C           3.69570         1.59850         4.87480
C           0.13010        -0.28280        -0.24050
C           4.76330         1.00090         5.81780
H           1.29440         1.51280         3.45560
H           2.56320         2.06480         2.34870
H           2.52030        -0.13840         1.18200
H           1.26500        -0.71420         2.29260
H           2.80570        -0.29060         4.29470
H           4.08390         0.26990         3.20200
H           0.95900         1.62590         0.33440
H           4.11660         2.48210         4.38680
H           2.83950         1.91530         5.47710
H           0.98680        -0.58350        -0.84930
H          -0.62030         0.16350        -0.89830
H          -0.30210        -1.17200         0.22550
H           5.06530         1.74680         6.55560
H           4.36030         0.13270         6.34310
H           5.64290         0.69660         5.24740
H          -1.16110         1.58640         0.94470

