#Put Keywords Here, check Charge and Multiplicity.

 31244

0  1
O          -3.08240         4.47970         0.01070
O           1.31210        -0.03960         0.13550
C          -2.28570         3.47880        -0.01440
C          -0.66700         1.12090        -0.00810
C          -2.86460         2.20530        -0.18870
C          -0.88060         3.56650         0.13120
C          -2.07070         1.04390        -0.17830
C          -0.08380         2.40560         0.12700
C           0.09290        -0.04320         0.03370
C          -2.85590         5.78770         0.19400
H          -3.87680         2.11260        -0.31570
H          -0.42570         4.47600         0.24080
H          -2.53210         0.13790        -0.29800
H           0.92890         2.51250         0.23460
H          -0.34770        -0.93180        -0.01320
H          -3.81340         6.30750         0.16790
H          -2.38840         5.97580         1.16360
H          -2.22320         6.19370        -0.59790

