#Put Keywords Here, check Charge and Multiplicity.

 8180

0  1
O          -0.13380         0.93220         3.40700
O          -1.06690         2.80350         3.29970
C          -0.31750         1.44370        -3.60840
C           0.68290         1.82370        -4.73190
C           0.19480         1.81120        -2.18770
C           0.16200         1.45470        -6.14830
C          -0.82170         1.42550        -1.07790
C           1.16720         1.83800        -7.26750
C          -0.31800         1.78750         0.34670
C           0.65630         1.47340        -8.68780
C          -1.33580         1.40970         1.45790
C           1.65830         1.85560        -9.80160
C          -0.82730         1.72420         2.78040
H          -0.50510         0.36670        -3.64690
H          -1.26540         1.96060        -3.78540
H           1.62980         1.30630        -4.55430
H           0.87070         2.90020        -4.69080
H           1.14000         1.29230        -2.00200
H           0.38400         2.88840        -2.14180
H          -0.78560         1.97150        -6.32540
H          -0.02660         0.37810        -6.18930
H          -1.76810         1.94280        -1.26390
H          -1.00850         0.34770        -1.12560
H           1.35480         2.91430        -7.22460
H           2.11380         1.32110        -7.08850
H           0.62950         1.26990         0.52860
H          -0.13040         2.86510         0.39260
H           0.47060         0.39780        -8.74300
H          -0.28780         1.98990        -8.87900
H          -1.56750         0.34190         1.40490
H          -2.27160         1.95400         1.29070
H           1.25030         1.57810       -10.77500
H           1.84450         2.93230        -9.79670
H           2.60680         1.33200        -9.66000
H           0.08620         0.15530         3.05690

