#Put Keywords Here, check Charge and Multiplicity.

 5283349

0  1
O           3.02090        -5.76040         1.07400
C           2.78860         3.27780         0.47270
C           2.34910         1.88570         0.99880
C           3.58380         4.10780         1.51530
C           1.54770         1.07800        -0.05760
C           4.00320         5.48930         0.96550
C           1.19170        -0.24450         0.43880
C           2.01440        -1.30520         0.34900
C           1.71350        -2.53740         0.84900
C           2.53470        -3.59980         0.73150
C           2.24210        -4.82850         1.21650
H           3.41430         3.13570        -0.41230
H           1.89940         3.84160         0.17880
H           3.24030         1.31780         1.28120
H           1.72730         2.01970         1.88930
H           2.97010         4.25780         2.40830
H           4.48390         3.55940         1.80820
H           0.63270         1.62530        -0.30400
H           2.12980         0.98960        -0.98100
H           4.64330         5.37110         0.08970
H           3.12250         6.06970         0.68570
H           4.55510         6.04090         1.72750
H           0.30730        -0.34430         0.88740
H           2.89310        -1.17630        -0.10370
H           0.84640        -2.65520         1.32750
H           3.40680        -3.48610         0.26130
H           1.38900        -5.00560         1.69400

