#Put Keywords Here, check Charge and Multiplicity.

 31252

0  1
N          -0.69190         1.03810         0.80000
N          -0.90240        -1.64620         1.07700
C          -0.04060         0.24600        -0.09360
C          -1.54180        -0.85420         1.97920
C          -0.16140        -1.15190         0.05250
C          -1.43390         0.54370         1.82370
C           0.74300         0.86290        -1.17910
C          -2.32900        -1.47110         3.06200
H           0.29740        -1.79500        -0.59610
H          -1.90210         1.18690         2.46560
H           0.09890         1.01320        -2.04590
H           1.14070         1.83030        -0.86620
H           1.58400         0.22930        -1.46910
H          -2.33660        -0.84080         3.95390
H          -1.91180        -2.44170         3.33760
H          -3.35510        -1.61490         2.72270

