#Put Keywords Here, check Charge and Multiplicity.

 7793

0  1
O          -4.76200         2.05700        -4.72200
C          -4.38430        -0.54810        -1.88480
C          -3.86010        -1.82120        -2.63170
C          -5.02950         0.49070        -2.86870
C          -3.03550        -2.83910        -1.79010
C          -5.41860        -0.91150        -0.77490
C          -4.09760         1.04070        -3.97820
C          -2.75000        -4.05610        -2.54420
C          -3.60060        -5.08400        -2.78430
C          -3.17330        -6.22260        -3.60030
C          -4.97270        -5.15560        -2.27400
H          -3.53730        -0.05880        -1.39310
H          -3.19260        -1.51470        -3.44060
H          -4.71910        -2.31550        -3.09380
H          -5.38530         1.35050        -2.29200
H          -5.90220         0.04170        -3.35020
H          -2.09110        -2.35830        -1.51860
H          -3.52410        -3.09670        -0.85180
H          -5.79730        -0.00980        -0.28800
H          -6.26590        -1.45230        -1.20200
H          -4.96630        -1.53290        -0.00150
H          -3.82550         0.25690        -4.68490
H          -3.18790         1.45260        -3.53740
H          -1.83260        -4.10800        -2.93170
H          -4.14660         2.28060        -5.45080
H          -3.84360        -6.34120        -4.45320
H          -2.16140        -6.11210        -3.99630
H          -3.20030        -7.13950        -3.00910
H          -5.06440        -5.99660        -1.58420
H          -5.29890        -4.26470        -1.73920
H          -5.67000        -5.30420        -3.10050

