#Put Keywords Here, check Charge and Multiplicity.

 101977

0  1
O          -4.51680         1.32240         5.17380
C          -5.37680         0.56490         1.48590
C          -4.35210         1.36730         0.61420
C          -4.90050         0.37780         2.96840
C          -4.83700         1.74660        -0.81750
C          -5.69060        -0.83370         0.86850
C          -4.75070         1.66750         3.81150
C          -3.78670         2.40820        -1.58080
C          -2.73510         1.82350        -2.20500
C          -1.73990         2.65070        -2.89280
C          -2.49010         0.37850        -2.25090
H          -6.31560         1.12760         1.50730
H          -4.11620         2.30900         1.11870
H          -3.42010         0.79620         0.55690
H          -3.94880        -0.15970         2.98080
H          -5.63180        -0.24570         3.48880
H          -5.19890         0.88420        -1.37520
H          -5.68760         2.42780        -0.71910
H          -6.34800        -1.40840         1.52380
H          -4.76940        -1.40260         0.71620
H          -6.20630        -0.73890        -0.08750
H          -5.66140         2.26560         3.75580
H          -3.90820         2.26450         3.46220
H          -3.85500         3.40110        -1.61230
H          -4.43000         2.17400         5.64900
H          -1.69360         2.37730        -3.94900
H          -1.95040         3.72150        -2.83900
H          -0.75630         2.48870        -2.44680
H          -1.52260         0.15330        -1.79860
H          -3.23520        -0.21740        -1.72690
H          -2.47340         0.03800        -3.28850

