#Put Keywords Here, check Charge and Multiplicity.

 10154345

0  1
O          -0.53710         0.52620        -0.22220
O           1.36700        -0.44180        -0.23010
C          -1.71870         0.62080         0.38910
C          -1.89980         2.03050         1.02290
C          -1.88430         3.17580        -0.02580
C          -1.70280        -0.53350         1.42610
C          -1.83490         4.58430         0.62060
C          -0.27700        -1.09300         1.29460
C          -1.81460         5.71290        -0.44480
C          -1.75400         7.12730         0.18810
C           0.23850        -0.31230         0.21510
C          -1.75850         8.26340        -0.86840
C          -1.71600         9.66720        -0.22360
H          -2.50730         0.45010        -0.35140
H          -1.09630         2.19440         1.74640
H          -2.85160         2.06010         1.56370
H          -2.77790         3.09420        -0.65070
H          -1.00860         3.06380        -0.67050
H          -1.89210        -0.19110         2.44780
H          -2.44590        -1.29540         1.17150
H          -0.93710         4.66220         1.23950
H          -2.70660         4.71320         1.26850
H          -0.94450         5.57550        -1.09300
H          -2.71410         5.63510        -1.06080
H           0.30720        -0.92020         2.19960
H          -0.28150        -2.15680         1.04660
H          -0.84430         7.20810         0.79050
H          -2.61440         7.25650         0.85000
H          -0.89190         8.15530        -1.52660
H          -2.66150         8.18950        -1.48140
H          -0.80760         9.78600         0.37050
H          -2.58420         9.81640         0.42180
H          -1.72570        10.43390        -1.00170

