#Put Keywords Here, check Charge and Multiplicity.

 441644

0  1
O          -0.60940         0.89730         0.15900
O           1.24910        -0.05880        -0.31700
C          -1.79400         0.76140         0.75720
C          -2.99070         1.15290        -0.16540
C          -2.91470         2.59800        -0.73760
C          -1.81590        -0.72400         1.21030
C          -4.20200         3.01990        -1.50380
C          -0.46920        -1.26980         0.70590
C          -4.12000         4.45820        -2.09000
C          -5.40750         4.87260        -2.85390
C           0.11860        -0.09120         0.14550
C          -5.32470         6.30680        -3.44430
C          -6.60790         6.71210        -4.20480
H          -1.79970         1.41660         1.63650
H          -3.90910         1.05300         0.42080
H          -3.04660         0.44730        -0.99970
H          -2.05890         2.65990        -1.41580
H          -2.74850         3.29630         0.08670
H          -1.88630        -0.79550         2.30090
H          -2.64260        -1.28830         0.77050
H          -5.05240         2.96940        -0.81850
H          -4.38250         2.31380        -2.31920
H          -3.94820         5.16460        -1.27330
H          -3.26720         4.51560        -2.77210
H           0.13130        -1.66770         1.52810
H          -0.59270        -2.02660        -0.07510
H          -6.26120         4.82080        -2.17270
H          -5.58230         4.16590        -3.66960
H          -5.15770         7.02510        -2.63740
H          -4.47850         6.36930        -4.13340
H          -7.47160         6.69010        -3.53660
H          -6.78860         6.03170        -5.03990
H          -6.49950         7.72420        -4.59890

