#Put Keywords Here, check Charge and Multiplicity.

 2879

0  1
O          -3.72470         0.95490         0.58310
C          -0.14440        -0.97690         0.19920
C          -0.19380         0.38110         0.59360
C          -1.35810        -1.65570        -0.06120
C          -1.42540         1.04890         0.71320
C          -2.59130        -0.98950         0.06010
C          -2.62740         0.36120         0.45340
C           1.15310        -1.68090         0.08020
H           0.66710         0.89430         0.79920
H          -1.35490        -2.63980        -0.33890
H          -1.44130         2.03370         0.99360
H          -3.45920        -1.49520        -0.13800
H           1.40480        -2.13420         1.03950
H           1.10980        -2.46430        -0.67810
H           1.95130        -0.99300        -0.20340
H          -4.48270         0.52810         0.45100

