#Put Keywords Here, check Charge and Multiplicity.

 14286

0  1
O          -2.30400         3.64180        -0.00840
N           0.35740         1.36760        -0.01040
C          -0.92560         1.83110        -0.00230
C          -1.96770         0.86800        -0.00190
C          -1.15810         3.20890         0.01060
C          -1.65350        -0.50530        -0.00180
C          -0.09220         4.19880         0.00940
C          -0.31110        -0.92050        -0.00200
C           0.69740         0.05630        -0.00740
H          -2.95110         1.14710         0.00100
H          -2.39980        -1.20250         0.00170
H           0.79480         3.84190         0.53790
H          -0.41230         5.12540         0.49560
H           0.17990         4.42560        -1.02300
H          -0.07040        -1.91450         0.00290
H           1.68130        -0.21040        -0.00550

