#Put Keywords Here, check Charge and Multiplicity.

 10106

0  1
O           2.25470        -0.75390        -0.41630
C           1.78730         0.51650         0.05910
C           3.65120        -0.52160        -0.23190
C           2.40510         0.55370         1.49310
C           2.53890         1.49410        -0.89300
C           3.70370        -0.24680         1.29330
C           3.87990         0.75890        -1.08280
C           0.21980         0.60270         0.04870
C           4.52760        -1.72210        -0.66740
C          -0.30450         1.97010         0.57020
C          -0.42570         0.24450        -1.32120
H           2.60640         1.57420         1.83070
H           1.76590         0.05690         2.22860
H           2.67020         2.48610        -0.44980
H           2.03540         1.59600        -1.85720
H           4.59430         0.31450         1.58360
H           3.66280        -1.17890         1.86660
H           4.03640         0.51600        -2.13960
H           4.72470         1.34730        -0.71690
H          -0.14400        -0.15790         0.74790
H           4.39030        -1.92900        -1.73080
H           4.25680        -2.61870        -0.10530
H           5.58080        -1.49910        -0.48590
H           0.07490         2.17190         1.57380
H          -1.39460         1.96130         0.62430
H           0.00520         2.78350        -0.08810
H          -0.03980        -0.70710        -1.69000
H          -1.50670         0.14300        -1.20750
H          -0.23320         1.01600        -2.06760

