#Put Keywords Here, check Charge and Multiplicity.

 31265

0  1
O           2.10920         0.83810        -0.44830
O           2.19950        -1.02490         0.52650
C          -2.22270        -0.01440         0.82430
C          -0.68640         0.11480         1.00810
C          -3.04380         0.48650         2.04130
C           0.09510        -0.43020        -0.21880
C          -4.56680         0.33070         1.82640
C           1.52780        -0.20170        -0.08100
C           2.15320         1.40010        -1.66710
C           2.93930         2.72520        -1.61150
H          -2.51480         0.56500        -0.05660
H          -2.46880        -1.06500         0.64190
H          -0.43450         1.16990         1.15550
H          -0.38140        -0.44090         1.90080
H          -2.75650        -0.07940         2.93220
H          -2.82110         1.54240         2.22100
H          -0.09910        -1.50160        -0.32520
H          -0.27890         0.04590        -1.12700
H          -4.89120         0.91210         0.96250
H          -4.82280        -0.71720         1.66600
H          -5.10400         0.68820         2.70710
H           1.15000         1.62120        -2.04000
H           2.64510         0.72410        -2.37250
H           3.95660         2.55570        -1.25190
H           2.43830         3.42930        -0.94300
H           2.99070         3.16540        -2.61080

