#Put Keywords Here, check Charge and Multiplicity.

 62378

0  1
O           2.74330        -1.54630         1.15850
C           1.46470        -0.11170        -0.07060
C           0.15800        -0.72230         0.19510
C           1.70080         0.98650        -0.80790
C           3.10700         1.31820        -0.82970
C          -0.52430        -0.08050         1.43650
C           3.75070         0.23180         0.05050
C           2.62580        -0.56660         0.43490
C          -1.94980        -0.63470         1.70360
C          -2.62210         0.01090         2.94650
C           0.72360         1.78070        -1.53640
C          -4.03560        -0.55330         3.21810
H           0.26990        -1.79510         0.37410
H          -0.48880        -0.63140        -0.68020
H           3.26930         2.31400        -0.40520
H           3.49990         1.28460        -1.85080
H          -0.59410         1.00290         1.30240
H           0.09580        -0.26590         2.31920
H           4.22730         0.66560         0.93280
H           4.47410        -0.36540        -0.51050
H          -1.88660        -1.71730         1.85250
H          -2.57470        -0.44550         0.82500
H          -2.00200        -0.16500         3.82990
H          -2.70280         1.09150         2.79760
H           0.57060         1.34530        -2.52490
H          -0.23350         1.82480        -1.01450
H           1.07530         2.80590        -1.66320
H          -4.46250        -0.07250         4.10130
H          -3.98850        -1.62960         3.39640
H          -4.69220        -0.36200         2.36640

