#Put Keywords Here, check Charge and Multiplicity.

 4133

0  1
O           5.95260         0.96060         0.03130
O           1.98040         1.91090         0.24170
O           4.54710         2.48540        -0.11090
C           3.70740         0.34280        -0.06340
C           2.33600         0.71440         0.06350
C           4.00030        -1.03810        -0.22540
C           1.31580        -0.25910         0.01120
C           2.98160        -2.00700        -0.25500
C           1.63800        -1.61720        -0.13990
C           4.75370         1.28200        -0.03250
C           6.65110         0.73040         1.15000
H           4.96750        -1.36050        -0.32620
H           0.33190         0.01590         0.09010
H           3.21830        -2.99640        -0.36110
H           0.89510        -2.31950        -0.16360
H           1.13060         2.11760         0.34350
H           7.68090         0.50660         0.87010
H           6.24850        -0.12570         1.69720
H           6.65400         1.60770         1.80290

