#Put Keywords Here, check Charge and Multiplicity.

 9862

0  1
O          -5.06060         1.37110        -1.11770
C          -2.53000        -0.09960         0.08720
C          -3.00430         0.33590        -1.32570
C          -1.09200        -0.32020         0.11420
C          -0.42260        -1.42340        -0.29670
C          -4.45350         0.35190        -1.42050
C           1.03790        -1.44070        -0.25460
C          -1.04860        -2.64540        -0.80760
C          -5.20420        -0.81100        -1.84850
H          -2.77790         0.70130         0.79090
H          -3.06170        -0.99000         0.43040
H          -2.61190         1.33490        -1.54340
H          -2.60110        -0.33850        -2.08750
H          -0.56070         0.45260         0.44580
H           1.43380        -1.62510        -1.25530
H           1.47370        -0.50410         0.09770
H           1.37900        -2.23520         0.41050
H          -0.82090        -3.48000        -0.14140
H          -2.13020        -2.59080        -0.90480
H          -0.65540        -2.88210        -1.79720
H          -5.34150        -0.77570        -2.92990
H          -4.67800        -1.73290        -1.59080
H          -6.18450        -0.83500        -1.36850

