#Put Keywords Here, check Charge and Multiplicity.

 11509

0  1
O           1.78270         1.08120        -0.26080
C           0.02760        -0.41480        -0.09000
C          -0.60320        -0.32960         1.32730
C           1.44520        -0.08160        -0.07720
C           2.47980        -1.08520         0.13190
C          -2.09670        -0.72520         1.34750
C           2.92780        -1.72870        -1.20100
H          -0.50000         0.26850        -0.76060
H          -0.10750        -1.42440        -0.48850
H          -0.51100         0.69320         1.70900
H          -0.06570        -0.99540         2.00770
H           3.35100        -0.63110         0.61520
H           2.11470        -1.87060         0.80060
H          -2.22060        -1.75690         1.01300
H          -2.48980        -0.64160         2.36340
H          -2.67690        -0.06770         0.69650
H           3.68840        -2.48990        -1.01150
H           3.35320        -0.97430        -1.86870
H           2.08080        -2.20460        -1.69920

