#Put Keywords Here, check Charge and Multiplicity.

 11173

0  1
O          -3.01160        -0.16450         1.35170
C          -0.21070        -1.28980         0.72430
C          -1.19240        -0.75470        -0.04080
C           1.19380        -1.07870         0.36990
C          -0.44910        -2.09690         1.92390
C          -2.62240        -0.86870         0.17600
H          -0.92780        -0.22090        -0.83820
H           1.67780        -2.03970         0.18520
H           1.32920        -0.46620        -0.52590
H           1.71380        -0.57750         1.18840
H           0.07550        -1.66200         2.77700
H          -1.49920        -2.18050         2.20170
H          -0.07050        -3.10890         1.76430
H          -2.91690        -1.91680         0.25830
H          -3.16680        -0.43500        -0.66650
H          -3.98210        -0.28640         1.40590

