#Put Keywords Here, check Charge and Multiplicity.

 8797

0  1
O           0.37560         0.45120         0.23400
O           0.76630        -0.53570        -1.66710
C          -3.38900         2.12770         0.40960
C          -0.79250         0.96990         0.19650
C          -2.87630         1.73630        -0.84810
C          -2.58250         1.94700         1.55460
C          -1.59440         1.16660        -0.95650
C          -1.29980         1.38130         1.44670
C          -4.74210         2.71970         0.52340
C           1.13000        -0.12350        -0.57420
C           2.50120        -0.35890        -0.18790
H          -3.43840         1.85800        -1.69520
H          -2.92640         2.22290         2.47740
H          -1.25770         0.90080        -1.88340
H          -0.73630         1.26500         2.29490
H          -4.68650         3.79700         0.35990
H          -5.41970         2.28540        -0.21390
H          -5.16780         2.53670         1.51170
H           2.71220         0.04070         0.80700
H           3.17290         0.12290        -0.89980
H           2.70390        -1.43150        -0.17870

