#Put Keywords Here, check Charge and Multiplicity.

 61451

0  1
O          -1.16080         0.75170        -7.97600
O          -0.17300        -0.95490        -7.10520
C           0.75890         1.96810        -1.36760
C           1.17850         1.01730        -0.21330
C           0.48000         1.21300        -2.69420
C           1.45540         1.76580         1.11620
C           0.05450         2.17130        -3.83650
C           1.87240         0.81470         2.26170
C          -0.19270         1.47850        -4.98480
C          -0.38970         0.85250        -5.98080
C          -0.70660         0.92040        -9.22470
C          -0.57680         0.19760        -7.03940
C          -1.78780         1.61520       -10.07220
H          -0.14570         2.50850        -1.07490
H           1.55520         2.69810        -1.53850
H           0.38100         0.28720        -0.04950
H           2.08160         0.47710        -0.51100
H           1.38790         0.67440        -2.99150
H          -0.31540         0.47830        -2.52100
H           2.25550         2.49460         0.96310
H           0.55560         2.30470         1.42410
H          -0.84940         2.71690        -3.55740
H           0.85070         2.88990        -4.04050
H           2.05520         1.38840         3.17210
H           1.08140         0.08930         2.46210
H           2.78730         0.27990         1.99930
H          -0.45750        -0.03910        -9.68900
H           0.18760         1.55070        -9.21110
H          -2.68220         0.99090       -10.12080
H          -1.41860         1.77850       -11.08720
H          -2.05130         2.58150        -9.63660

