#Put Keywords Here, check Charge and Multiplicity.

 80080

0  1
O           1.04350        -2.75630         3.44310
C           0.87100        -0.35140         1.64320
C           0.97760         0.31910         0.24660
C          -0.12170        -1.54660         1.66260
C           1.98750         1.49900         0.23450
C          -0.22760        -2.24010         3.04960
C           2.11190         2.18030        -1.15350
C          -1.25570        -3.39600         3.04700
C           3.12000         3.35160        -1.14570
H           0.54450         0.39370         2.37420
H           1.86150        -0.70480         1.93920
H           1.29320        -0.42830        -0.48810
H          -0.00860         0.68910        -0.04870
H          -1.11130        -1.17990         1.37750
H           0.18950        -2.28360         0.91710
H           1.67020         2.24500         0.96970
H           2.97080         1.12510         0.53560
H          -0.53870        -1.50360         3.79540
H           2.43720         1.44430        -1.89360
H           1.13520         2.56180        -1.46320
H          -2.24610        -3.02580         2.77540
H          -0.96340        -4.17010         2.33430
H          -1.31780        -3.84300         4.04030
H           3.17330         3.79920        -2.13900
H           2.80840         4.11960        -0.43510
H           4.11550         2.99750        -0.87060
H           0.92030        -3.07130         4.36430

