#Put Keywords Here, check Charge and Multiplicity.

 445789

0  1
O          -2.01470         2.47560        -0.05800
C          -0.93930         0.33160         0.38160
C          -0.98450         0.47510         1.92750
C          -0.87210         1.68510        -0.38550
C          -1.00050        -0.90970         2.63170
C          -0.81670         1.52240        -1.93390
C          -1.02180        -0.81950         4.18050
C           0.43980         0.78960        -2.46420
C          -1.04630        -2.21370         4.85040
H          -0.06090        -0.26420         0.12620
H          -1.82460        -0.21770         0.04820
H          -0.11190         1.04240         2.26110
H          -1.88140         1.03140         2.21390
H           0.01110         2.24100        -0.05850
H          -1.88350        -1.46440         2.29890
H          -0.11210        -1.47090         2.32760
H          -1.70850         0.98820        -2.27760
H          -0.83410         2.51960        -2.38370
H          -0.13520        -0.28210         4.52850
H          -1.90600        -0.26180         4.50170
H           0.46500         0.83800        -3.55330
H           1.34990         1.24980        -2.07210
H           0.42090        -0.26240        -2.18170
H          -1.06460        -2.10420         5.93710
H          -1.93510        -2.76930         4.54270
H          -0.15810        -2.78620         4.57440
H          -2.78480         1.92480        -0.31740

