#Put Keywords Here, check Charge and Multiplicity.

 6999002

0  1
O          -2.06380         2.14600         0.03180
C          -0.47310         0.32760         0.00130
C           1.00370        -0.13820         0.12790
C          -0.71400         1.82150         0.36710
C           1.21160        -1.61120        -0.31730
C          -0.45940         2.16590         1.86210
C           2.67380        -2.07970        -0.09340
C          -0.72980         3.65040         2.19480
C           2.90770        -3.56310        -0.45460
H          -0.79040         0.17660        -1.03480
H          -1.10610        -0.30490         0.63160
H           1.63870         0.51450        -0.47860
H           1.32090        -0.04750         1.16890
H          -0.06690         2.44480        -0.25720
H           0.53680        -2.25530         0.25480
H           0.95860        -1.70790        -1.37830
H          -1.09750         1.54000         2.49060
H           0.57980         1.95640         2.12140
H           3.34310        -1.46130        -0.69660
H           2.94000        -1.94050         0.95780
H          -0.48860         3.83990         3.24220
H          -0.11250         4.29900         1.57020
H          -1.78100         3.89580         2.03210
H           3.95300        -3.81980        -0.26970
H           2.27990        -4.21310         0.15830
H           2.68570        -3.74350        -1.50670
H          -2.61430         1.57910         0.61330

