#Put Keywords Here, check Charge and Multiplicity.

 69420

0  1
O           1.63930         2.01570         1.50310
O          -8.19540         0.81790        -4.06190
C          -2.60540         1.78110        -1.15880
C          -3.94790         1.02870        -1.37430
C          -1.75520         1.16440        -0.01470
C          -4.79380         1.64610        -2.51930
C          -0.41120         1.90650         0.20780
C          -6.13820         0.90410        -2.74560
C           0.42720         1.28950         1.35020
C          -6.97330         1.52700        -3.88820
H          -2.81720         2.82710        -0.92250
H          -2.02760         1.75130        -2.08680
H          -3.73570        -0.01770        -1.61040
H          -4.52550         1.05830        -0.44650
H          -1.54610         0.11810        -0.25250
H          -2.33480         1.19650         0.91330
H          -4.21280         1.61640        -3.44520
H          -5.00280         2.69270        -2.28100
H           0.17430         1.87910        -0.71460
H          -0.61540         2.95340         0.45300
H          -6.72700         0.93410        -1.82510
H          -5.93690        -0.14230        -2.98940
H           0.66750         0.25040         1.12690
H          -0.12390         1.32710         2.29020
H          -6.41790         1.48940        -4.82640
H          -7.20920         2.56750        -3.66030
H           1.35410         2.93140         1.70450
H          -8.64910         1.27950        -4.79660

