#Put Keywords Here, check Charge and Multiplicity.

 8051

0  1
O           2.32420         1.01660         0.00480
C          -2.06040        -0.23510         0.17130
C          -0.59220        -0.07780         0.64500
C          -3.09370        -0.12120         1.32510
C           0.42840        -0.19300        -0.52050
C          -4.54950        -0.27670         0.82730
C           1.79390        -0.08640        -0.03260
C           2.54440        -1.23740         0.43210
H          -2.27600         0.53670        -0.57310
H          -2.17100        -1.21370        -0.30390
H          -0.47640         0.89880         1.12670
H          -0.37840        -0.85350         1.38580
H          -2.89760        -0.89610         2.07190
H          -2.99530         0.85340         1.81140
H           0.29730        -1.14700        -1.04110
H           0.23450         0.60120        -1.24870
H          -4.78670         0.50050         0.09660
H          -4.69080        -1.25550         0.36230
H          -5.24360        -0.18750         1.66660
H           1.88060        -1.99500         0.85820
H           3.26360        -0.94530         1.20200
H           3.08950        -1.67680        -0.40540

