#Put Keywords Here, check Charge and Multiplicity.

 6999933

0  1
O           0.90180        -3.45800         2.94600
O          -1.59710        -3.95880         4.17810
C           1.40720        -0.74110         1.70290
C           1.53110         0.20200         0.47660
C           0.04390        -1.48520         1.76150
C           2.91040         0.91370         0.42340
C          -0.09700        -2.43870         2.98160
C           3.06910         1.85350        -0.79960
C          -1.48850        -3.11780         3.03300
C           4.44750         2.55130        -0.83260
H           1.52970        -0.15760         2.62060
H           2.21420        -1.47710         1.65730
H           1.39270        -0.37920        -0.44060
H           0.74030         0.95530         0.52570
H          -0.75620        -0.74060         1.80450
H          -0.08560        -2.06620         0.84420
H           3.04140         1.49780         1.33830
H           3.69670         0.15480         0.38920
H           0.03360        -1.86540         3.90300
H           2.94900         1.27660        -1.72020
H           2.29060         2.62050        -0.77640
H          -2.27580        -2.36130         3.08090
H          -1.64530        -3.72830         2.14090
H           4.51280         3.20150        -1.70720
H           4.59020         3.15970         0.06300
H           5.24920         1.81200        -0.88970
H           1.75770        -2.98770         3.03930
H          -1.44550        -3.36440         4.94330

