#Put Keywords Here, check Charge and Multiplicity.

 12346038

0  1
O          -0.06480         2.27300         3.65280
C          -0.62220         1.40160         2.66640
C          -0.03450         1.80380         1.28290
C          -2.17730         1.44800         2.74240
C          -0.39040         0.83980         0.11530
C          -2.73140         1.05540         4.13710
C           0.26460         1.25370        -1.23120
C          -4.27530         0.98410         4.17920
C          -0.16620         0.36540        -2.42130
H          -0.28920         0.38750         2.90490
H          -0.37780         2.81230         1.03410
H           1.05610         1.83620         1.37670
H          -2.59030         0.75220         2.00780
H          -2.52250         2.45470         2.49020
H          -0.06170        -0.17110         0.37430
H          -1.47470         0.82300        -0.02140
H          -2.33450         0.07760         4.41950
H          -2.39860         1.78510         4.87990
H           1.35240         1.20440        -1.13190
H          -0.00850         2.28670        -1.45910
H          -4.64410         0.25620         3.45160
H          -4.60410         0.67700         5.17490
H          -4.70460         1.96320         3.95410
H           0.29760         0.73080        -3.34090
H           0.14770        -0.66760        -2.25770
H          -1.25140         0.39400        -2.54620
H          -0.36510         3.17370         3.40480

