#Put Keywords Here, check Charge and Multiplicity.

 12346037

0  1
O           0.21540         0.08200        -2.92050
C          -0.41810         1.33810        -2.67850
C          -0.09650         1.81150        -1.23110
C           0.03780         2.33340        -3.78880
C          -0.52880         0.80870        -0.12680
C          -0.69420         3.70520        -3.79200
C          -0.26280         1.36890         1.29640
C          -0.25310         4.61560        -4.96130
C          -0.72410         0.41300         2.42020
H          -1.49590         1.17670        -2.76950
H           0.97800         1.99340        -1.15040
H          -0.61360         2.75230        -1.04570
H          -0.13250         1.85800        -4.76040
H           1.11460         2.50630        -3.69420
H          -1.59600         0.59410        -0.23190
H           0.02040        -0.12840        -0.24810
H          -1.77350         3.54280        -3.86370
H          -0.48950         4.23850        -2.86160
H          -0.79300         2.31710         1.41630
H           0.80670         1.56180         1.41620
H          -0.48420         4.14620        -5.91960
H          -0.78430         5.56890        -4.90540
H           0.82140         4.81190        -4.91110
H          -0.51000         0.86240         3.39290
H          -1.79950         0.23290         2.34960
H          -0.19630        -0.54100         2.35060
H           1.17870         0.26290        -2.86470

