#Put Keywords Here, check Charge and Multiplicity.

 15717

0  1
O          -3.99170         2.35660        -0.97730
O          -2.12100         2.72860        -1.85480
C          -0.65030         1.30760         0.03560
C          -2.13840         1.38860         0.08130
C           0.13060         2.46710         0.25710
C           0.01330         0.07880        -0.19500
C          -2.76400         2.18180        -0.96800
C           1.53570         2.39760         0.26790
C           1.41740         0.00320        -0.16320
C           2.17750         1.16220         0.06970
C          -4.91910         1.50020        -1.43380
C          -6.22640         2.10810        -1.27970
C          -7.01500         2.44540        -2.30810
H          -2.56770         0.38290         0.04380
H          -2.41560         1.81890         1.04850
H          -0.32410         3.36950         0.41830
H          -0.52290        -0.77260        -0.37800
H           2.08910         3.24430         0.42360
H           1.88460        -0.89610        -0.30520
H           3.19650         1.10430         0.09340
H          -4.90530         0.56700        -0.86130
H          -4.71280         1.25830        -2.48310
H          -6.55320         2.28560        -0.35610
H          -7.89740         2.86770        -2.14360
H          -6.73400         2.28470        -3.24630

