#Put Keywords Here, check Charge and Multiplicity.

 9309

0  1
C           3.36130        -1.07130        -0.74510
C           2.06290        -1.20050        -0.00810
C           4.20250        -2.21150        -0.80680
C           3.81490         0.11930        -1.37160
C           5.44980        -2.16390        -1.45870
C           5.06900         0.17070        -2.01230
C           5.88830        -0.97040        -2.05470
C           1.21740        -0.01930         0.13640
C          -0.11620        -0.03750         0.01530
H           1.49420        -2.01350        -0.47190
H           2.30050        -1.51780         1.00940
H           3.91230        -3.09040        -0.36980
H           3.24680         0.96850        -1.36840
H           6.04010        -2.99720        -1.49840
H           5.38470         1.03960        -2.44820
H           6.79910        -0.93340        -2.51960
H           1.64270         0.84920         0.36700
H          -0.63870         0.79450         0.14820
H          -0.60760        -0.87260        -0.19560

