#Put Keywords Here, check Charge and Multiplicity.

 999

0  1
O          -1.99530         3.60770        -1.13400
O          -3.35650         2.69650         0.16080
C          -1.90240         0.32920         0.40200
C          -1.40520         1.49310        -0.38590
C          -3.01590        -0.41930        -0.05090
C          -1.26890        -0.06160         1.60610
C          -3.49120        -1.51890         0.68810
C          -1.73480        -1.16870         2.33830
C          -2.84680        -1.89610         1.87970
C          -2.29920         2.63700        -0.45080
H          -0.45860         1.85370         0.02680
H          -1.20330         1.14940        -1.40420
H          -3.48960        -0.16750        -0.92310
H          -0.46020         0.45440         1.96030
H          -4.30210        -2.04700         0.35640
H          -1.26440        -1.44380         3.20390
H          -3.18690        -2.69850         2.41270
H          -1.25060         3.60510        -1.60340

