#Put Keywords Here, check Charge and Multiplicity.

 17617

0  1
O          -0.07710         1.26090        -0.22800
O          -0.63930        -0.73070        -0.55140
C           3.20830        -1.34240         1.86410
C           2.60170        -2.45760         2.78660
C           4.62130        -1.73850         1.29860
C           3.67510        -3.26790         3.55540
C           4.84460        -3.27130         1.21700
C           4.70380        -3.95560         2.60830
C           2.21980        -0.91550         0.72590
C           0.81860        -0.43800         1.21610
C          -0.01130         0.06910         0.12960
C          -0.29780         2.37220         0.49190
C          -0.19370         3.51670        -0.39320
C          -1.19270         4.37020        -0.65400
H           3.36130        -0.45480         2.48920
H           1.92000        -2.00430         3.51130
H           2.02160        -3.16080         2.18360
H           4.78690        -1.30440         0.30840
H           5.39370        -1.32360         1.95470
H           4.20400        -2.58750         4.22920
H           3.18360        -4.02560         4.17180
H           4.10430        -3.69630         0.53150
H           5.83980        -3.47700         0.80730
H           5.68060        -3.95890         3.10250
H           4.41810        -5.00060         2.45490
H           2.09110        -1.75700         0.03800
H           2.67880        -0.09510         0.16360
H           0.94770         0.32360         1.98530
H           0.29850        -1.27340         1.69160
H           0.45430         2.49100         1.27600
H          -1.28340         2.31660         0.96690
H           0.68400         3.67810        -0.83170
H          -1.04520         5.13400        -1.27270
H          -2.08720         4.25950        -0.23820

