#Put Keywords Here, check Charge and Multiplicity.

 7967

0  1
O          -0.17890         0.10510        -1.81730
C           1.42030         0.77190         1.84080
C           0.52040         1.79820         1.10030
C           1.98050        -0.29920         0.86350
C          -0.57560         1.09640         0.25130
C           0.86900        -0.93790        -0.01750
C           0.01160         0.07910        -0.60840
H           2.25120         1.29640         2.32340
H           0.83600         0.27820         2.62460
H           1.14250         2.41610         0.44590
H           0.04710         2.45940         1.83040
H           2.72700         0.16660         0.21470
H           2.48140        -1.08250         1.43720
H          -1.10820         1.84710        -0.33970
H          -1.30040         0.62100         0.91700
H           1.33850        -1.54820        -0.79580
H           0.25490        -1.60020         0.59760

