#Put Keywords Here, check Charge and Multiplicity.

 22172

0  1
O           0.36780         0.39920         0.17320
O           2.33720        -1.01970        -1.69570
C           0.84340         0.66070        -1.16070
C           2.18700         0.12680        -1.29150
C           3.36180         0.91520        -0.98090
C          -0.95230         0.91000         0.43820
H           0.85410         1.73730        -1.36400
H           0.18660         0.18390        -1.89550
H           4.19240         0.27430        -0.68110
H           3.15670         1.61320        -0.16660
H           3.65780         1.47910        -1.86760
H          -1.21790         0.65630         1.46290
H          -1.69500         0.46360        -0.22760
H          -0.98010         1.99730         0.33740

