#Put Keywords Here, check Charge and Multiplicity.

 5283356

0  1
O          -4.37360         2.36520         2.71590
C          -0.48240        -2.52010        -2.48890
C           0.00820        -2.80050        -3.93520
C          -0.63820        -1.00300        -2.20270
C           0.16460        -4.31820        -4.22140
C          -1.12510        -0.71670        -0.75800
C           0.65470        -4.61730        -5.66250
C          -1.26550         0.80000        -0.46160
C           0.80720        -6.13000        -5.93720
C          -1.71590         1.03670         0.90270
C          -2.88890         1.61760         1.21300
C          -3.31250         1.80420         2.48470
H           0.23430        -2.94700        -1.78040
H          -1.44710        -3.01420        -2.33730
H          -0.70920        -2.37370        -4.64260
H           0.97250        -2.30570        -4.08550
H           0.32710        -0.51390        -2.35880
H          -1.35480        -0.58140        -2.91260
H           0.88040        -4.73810        -3.50970
H          -0.80140        -4.80620        -4.06740
H          -2.09410        -1.20200        -0.60840
H          -0.40920        -1.15000        -0.05390
H          -0.05800        -4.20300        -6.38000
H           1.62230        -4.13490        -5.82270
H          -1.95570         1.24110        -1.18800
H          -0.29320         1.28310        -0.59350
H           1.15250        -6.28550        -6.95920
H           1.53520        -6.57030        -5.25290
H          -0.15080        -6.63870        -5.81200
H          -1.11070         0.74240         1.63700
H          -3.48390         1.92170         0.47340
H          -2.78060         1.48090         3.25970

