#Put Keywords Here, check Charge and Multiplicity.

 440917

0  1
C          -2.80790        -0.12590        -0.20930
C          -1.92550        -1.21670        -0.92200
C          -1.97720         0.88390         0.66630
C          -0.52400        -1.37230        -0.27250
C           0.14020        -0.07220        -0.13950
C          -0.57580         0.98990         0.28800
C          -3.96530        -0.70500         0.51930
C           1.55190         0.07170        -0.47940
C          -3.75380        -1.61580         1.65510
C          -5.22320        -0.41610         0.13100
H          -3.18220         0.49160        -1.03770
H          -2.42460        -2.18980        -0.94700
H          -1.77240        -0.92750        -1.96800
H          -2.44040         1.87340         0.60870
H          -1.97770         0.60130         1.71830
H           0.06530        -2.05890        -0.88700
H          -0.63390        -1.81930         0.71890
H          -0.13610         1.87970         0.37420
H           1.64070         0.34390        -1.53340
H           2.03960         0.84350         0.12310
H           2.09640        -0.86060        -0.31190
H          -3.24200        -1.10780         2.47140
H          -3.15060        -2.47230         1.34940
H          -4.68770        -2.00730         2.06900
H          -6.01130        -0.79400         0.59870
H          -5.40210         0.18160        -0.63930

