#Put Keywords Here, check Charge and Multiplicity.

 439250

0  1
C          -2.80460         0.09630        -0.33630
C          -1.91480         1.08590        -1.17770
C          -2.05120        -0.50650         0.89510
C          -0.44290         1.20880        -0.67730
C           0.10960        -0.04810        -0.16290
C          -0.67910        -0.86050         0.57050
C          -4.13800         0.63980         0.02750
C           1.50110        -0.40270        -0.42710
C          -4.25640         1.78040         0.94670
C          -5.25720         0.08650        -0.48080
H          -2.94260        -0.77280        -0.99480
H          -1.88940         0.73590        -2.21410
H          -2.34120         2.08940        -1.21820
H          -2.58600        -1.39250         1.25250
H          -2.00310         0.20790         1.71780
H           0.17040         1.59810        -1.49650
H          -0.40920         1.94100         0.13470
H          -0.31980        -1.71830         0.92530
H           1.56270        -0.96320        -1.36160
H           2.12060         0.49250        -0.51310
H           1.92530        -1.01160         0.37520
H          -3.70690         2.64310         0.56940
H          -3.86350         1.52200         1.92900
H          -5.29040         2.10230         1.10000
H          -6.15730         0.42980        -0.24630
H          -5.21670        -0.68490        -1.10080

