#Put Keywords Here, check Charge and Multiplicity.

 24915

0  1
O           0.86770         4.33770        -1.53850
O          -0.75470         5.70440        -1.80750
C           1.97220         4.80010        -0.90390
C           1.61630         5.93040         0.13640
C           3.01660         5.28920        -1.96020
C           2.52610         3.53260        -0.17770
C           2.77320         6.47890         0.90730
C           0.03890         4.90040        -2.27780
C          -0.06260         4.53730        -3.67780
C           3.52980         7.56700         0.40390
C           3.14860         5.92100         2.15380
C          -1.25220         3.57510        -3.93820
C           4.65060         8.05140         1.10440
C           4.26790         6.40760         2.85580
C           5.03180         7.45880         2.32020
C          -1.40550         3.20140        -5.42940
H           0.86610         5.54550         0.83650
H           1.13260         6.76160        -0.38640
H           3.97470         5.51140        -1.48700
H           2.66110         6.19300        -2.46020
H           3.19250         4.52580        -2.72100
H           3.48050         3.74130         0.30760
H           1.82390         3.18210         0.58380
H           2.68800         2.71350        -0.88400
H          -0.18130         5.44900        -4.27040
H           0.86360         4.05330        -3.99990
H           3.27330         8.00770        -0.48300
H           2.61110         5.14920         2.55470
H          -2.18300         4.04270        -3.60270
H          -1.10670         2.65330        -3.36510
H           5.19270         8.83280         0.72840
H           4.53050         5.99460         3.75400
H          -0.49700         2.71800        -5.79620
H          -1.60200         4.09480        -6.02590
H          -2.24210         2.50980        -5.55030
H           5.86360         7.79220         2.81500

