#Put Keywords Here, check Charge and Multiplicity.

 5366038

0  1
O           1.00110         2.58170         0.81510
O          -1.01530         3.15300         1.19840
C           4.05440         4.65130         0.18350
C           5.56690         4.49920         0.49820
C           3.20030         3.45060         0.67490
C           6.39710         5.71800         0.01240
C           1.69500         3.63540         0.36250
C           7.90410         5.58290         0.32450
C          -0.21900         2.37500         0.68320
C          -0.69020         1.30400        -0.01070
C           0.08310         0.38860        -0.62350
C          -0.45370        -0.73460        -1.36030
H           3.68430         5.56420         0.65880
H           3.92420         4.75450        -0.89780
H           5.69690         4.38880         1.57810
H           5.94360         3.59400         0.01400
H           3.54850         2.53590         0.18670
H           3.33020         3.32990         1.75390
H           6.27620         5.83350        -1.06820
H           6.02520         6.62660         0.49400
H           1.33300         4.55560         0.83120
H           1.56970         3.71830        -0.72220
H           8.43720         6.46520        -0.03750
H           8.06550         5.49800         1.40180
H           8.31890         4.70030        -0.16800
H          -1.67830         1.19890        -0.07420
H           1.07440         0.45940        -0.56960
H          -0.61070        -1.57640        -0.68340
H          -1.40000        -0.48010        -1.84150
H           0.24820        -1.03660        -2.13910

