#Put Keywords Here, check Charge and Multiplicity.

 88561

0  1
O           1.93550        -0.08990        -1.39450
O           2.10790        -2.12240        -2.05420
C           1.44720         0.06200        -0.14020
C           1.82160        -1.13020         0.80060
C          -0.10070         0.26820        -0.17970
C           2.12380         1.35710         0.40250
C           1.73920        -0.97200        -2.25320
C           1.13950        -0.62950        -3.52690
C           2.19100        -0.45690        -4.64640
H           2.90030        -1.30370         0.78220
H           1.52670        -0.91680         1.83110
H           1.32210        -2.05120         0.49090
H          -0.49310         0.44380         0.82490
H          -0.59620        -0.61390        -0.59320
H          -0.35660         1.12730        -0.80500
H           1.78120         1.57560         1.41830
H           3.21120         1.24220         0.42340
H           1.88460         2.21560        -0.23120
H           0.57020         0.30190        -3.44100
H           0.43240        -1.41270        -3.81230
H           1.68660        -0.22880        -5.58630
H           2.77460        -1.36920        -4.77900
H           2.86860         0.36590        -4.40800

