#Put Keywords Here, check Charge and Multiplicity.

 36689612

0  1
O           0.59570        -0.08340        -0.88880
O           3.33050        -1.17820        -0.29080
O           1.07880        -0.07010         1.18300
O           4.84400        -2.38650         0.62890
C          -1.02540         0.62750        -2.46070
C          -2.54240         0.64550        -2.79240
C          -0.73040        -0.02570        -1.08680
C           2.10650        -1.70800        -0.10110
C           5.26290        -1.62120        -1.51700
C           6.34260        -0.51530        -1.37950
C           1.19320        -0.58670         0.07840
C          -2.86550         1.29790        -4.15510
C           1.69400        -2.62880        -1.28920
C           4.43770        -1.74620        -0.33270
C           7.19450        -0.36160        -2.65980
H          -0.49510         0.07280        -3.24060
H          -0.64090         1.65180        -2.45210
H          -2.92240        -0.37910        -2.80780
H          -3.07570         1.19270        -2.01130
H          -1.14580        -1.04020        -1.07440
H          -1.20900         0.56460        -0.29810
H           2.09380        -2.30770         0.82060
H           5.74330        -2.58330        -1.71810
H           4.62340        -1.39230        -2.37490
H           7.00640        -0.75250        -0.54380
H           5.85990         0.44300        -1.16880
H          -2.52070         2.33350        -4.17470
H          -2.38450         0.74630        -4.96540
H          -3.94520         1.28880        -4.32440
H           1.75570        -2.08630        -2.23570
H           2.35160        -3.49720        -1.35110
H           0.67100        -2.98490        -1.15990
H           7.71430        -1.29570        -2.88450
H           7.93880         0.42610        -2.52270
H           6.56050        -0.09490        -3.50870

