#Put Keywords Here, check Charge and Multiplicity.

 24884216

0  1
O           0.28210         0.34280        -0.20760
O           2.58780         1.52370         1.24760
O           2.05780        -0.84180        -0.34830
O           2.67820         3.01690         2.77350
C          -1.44910         1.22790        -1.54350
C          -1.79850         1.90760        -2.89510
C           0.05510         0.88010        -1.41400
C           1.82110         0.46000         1.55850
C           4.69120         2.37280         1.83450
C           5.12270         3.59880         0.98040
C           1.36090        -0.04930         0.27420
C          -3.29960         2.25340        -3.02430
C           0.64280         0.77630         2.52760
C           3.24970         2.28050         1.98010
C           6.65640         3.75960         0.87150
H          -1.72970         1.89830        -0.72530
H          -2.03170         0.30700        -1.44350
H          -1.22070         2.83100        -2.99670
H          -1.52150         1.24230        -3.71800
H           0.64920         1.79280        -1.52290
H           0.33450         0.17600        -2.20250
H           2.45200        -0.30440         2.03230
H           5.14130         2.43780         2.82980
H           5.07420         1.46050         1.36780
H           4.71380         4.51440         1.41920
H           4.71660         3.49530        -0.03150
H          -3.90680         1.34890        -2.95300
H          -3.59980         2.94650        -2.23590
H          -3.48930         2.72410        -3.99110
H           1.02220         1.02520         3.51850
H           0.05360         1.61940         2.15640
H          -0.00920        -0.09320         2.63230
H           7.09580         3.91870         1.85890
H           6.89180         4.62320         0.24500
H           7.10310         2.87110         0.41970

