#Put Keywords Here, check Charge and Multiplicity.

 8093

0  1
O           0.13760         0.72620         5.46180
C          -0.53510         2.24410         1.21690
C           0.31750         3.22710         0.36900
C          -0.19120         2.30630         2.72700
C          -0.02080         3.16340        -1.14440
C          -1.04370         1.32320         3.57300
C           0.83220         4.13820        -1.98810
C          -0.72990         1.44820         4.98800
C          -1.39110         2.40470         5.85550
H          -1.59330         2.48980         1.08710
H          -0.36990         1.22500         0.85530
H           0.14690         4.24620         0.72950
H           1.37590         2.98750         0.50790
H           0.87030         2.06890         2.86230
H          -0.36220         3.32550         3.08550
H           0.14800         2.14730        -1.51150
H          -1.07630         3.40820        -1.29190
H          -0.84580         0.30040         3.23770
H          -2.10880         1.51790         3.41440
H           0.55800         4.05410        -3.04130
H           0.66380         5.16740        -1.66540
H           1.89300         3.90160        -1.88450
H          -1.69260         3.29680         5.29920
H          -0.72640         2.71580         6.66610
H          -2.27780         1.94350         6.29430

