#Put Keywords Here, check Charge and Multiplicity.

 21596

0  1
O           0.01010         0.49910         5.21020
O          -1.04010         2.23990         5.73190
C          -0.59430         2.67170         1.22520
C          -0.20020         2.52720         2.71990
C           0.36270         3.59780         0.42810
C          -1.20680         1.64340         3.50280
C          -0.05030         3.75370        -1.06120
C           1.10110        -1.57980         5.55570
C          -0.75460         1.42050         4.87040
C          -0.14690        -0.82240         5.04230
C           0.89490         4.68710        -1.85020
C           0.92850        -3.11370         5.38790
C           2.13220        -3.94550         5.87600
H          -1.61100         3.07160         1.16380
H          -0.58790         1.67830         0.76660
H           0.79790         2.08070         2.78270
H          -0.16300         3.51760         3.18560
H           0.37140         4.58410         0.89990
H           1.37430         3.18530         0.47680
H          -1.33630         0.69620         2.97760
H          -2.18820         2.12490         3.51100
H          -0.05230         2.77260        -1.54390
H          -1.06370         4.16050        -1.11630
H           1.97310        -1.24210         4.98630
H           1.26720        -1.33520         6.60900
H          -1.03230        -1.15580         5.59140
H          -0.28060        -1.07110         3.98690
H           0.04360        -3.43710         5.94170
H           0.76920        -3.33540         4.33010
H           0.55960         4.76520        -2.88630
H           0.89770         5.68640        -1.41110
H           1.91280         4.29310        -1.84420
H           3.02890        -3.69130         5.30860
H           1.92070        -5.00640         5.73210
H           2.31560        -3.76950         6.93720

