#Put Keywords Here, check Charge and Multiplicity.

 61304

0  1
O           0.28690        -0.05910        -0.32830
O           2.41980        -0.18740        -0.22610
C          -3.33290         1.80370        -3.16190
C          -1.93280         2.00220        -2.51870
C          -3.76290         3.03370        -4.00660
C          -1.46080         0.78550        -1.67720
C          -5.15640         2.86220        -4.66900
C          -0.05420         1.00370        -1.06870
C           1.24120        -0.43020         1.77060
C          -5.57570         4.08960        -5.50900
C           1.32920        -0.21010         0.33120
C           0.58560         0.79180         2.47050
C           0.48410        -1.74710         2.09050
H          -3.31210         0.91760        -3.80400
H          -4.07190         1.63330        -2.37260
H          -1.20510         2.18640        -3.31360
H          -1.96640         2.88610        -1.87540
H          -3.78410         3.91720        -3.36220
H          -3.01890         3.20300        -4.79030
H          -2.17680         0.61400        -0.86730
H          -1.43950        -0.10670        -2.31050
H          -5.90830         2.69860        -3.89310
H          -5.14200         1.98450        -5.32000
H          -0.07610         1.89650        -0.43700
H           0.67230         1.16210        -1.87120
H           2.25270        -0.53130         2.18290
H          -6.55940         3.91560        -5.94990
H          -5.62910         4.98270        -4.88290
H          -4.86040         4.26530        -6.31520
H           0.60000         0.66250         3.55480
H          -0.45140         0.91890         2.15090
H           1.13590         1.70540         2.23380
H           0.48370        -1.93090         3.16760
H          -0.55130        -1.69880         1.74590
H           0.97490        -2.59330         1.60480

