#Put Keywords Here, check Charge and Multiplicity.

 Acetaldehyde

0  1
C           1.45250        -0.09420         0.03830
H           2.04620        -0.80140        -0.32500
C           0.08370        -0.40530         0.36540
H           0.05880        -1.18980         1.12250
H          -0.43430        -0.75600        -0.52780
H          -0.44130         0.47110         0.75260
O           1.90800         1.02880         0.19740

