#Put Keywords Here, check Charge and Multiplicity.

 Acetaldehyde phenethyl propyl acetal

0  1
C          -0.84390         1.11450        -1.29090
H          -1.80070         0.99580        -0.76840
C          -0.88170         2.49060        -1.98890
H           0.04190         2.65520        -2.54780
H          -1.72380         2.53970        -2.68260
H          -0.99120         3.28860        -1.25120
O          -0.64560         0.12980        -2.33490
O           0.24030         1.17330        -0.33470
C          -1.33970        -1.12620        -2.18510
H          -0.98480        -1.64520        -1.29520
H          -2.41670        -0.97020        -2.07810
C          -1.07320        -2.03090        -3.41310
H          -1.39290        -3.04860        -3.17600
H           0.00170        -2.05930        -3.61540
C          -1.81860        -1.57550        -4.68840
H          -2.89760        -1.56690        -4.51500
H          -1.60700        -2.27090        -5.50380
H          -1.49230        -0.57680        -4.98640
C           0.42210         0.03290         0.52600
H           0.86940        -0.78020        -0.05050
H          -0.53410        -0.29750         0.94100
C           1.36110         0.40560         1.69890
H           0.89570         1.21420         2.27300
H           2.29980         0.80270         1.29990
C           1.64660        -0.76240         2.57880
C           0.92630        -0.96810         3.77980
H           0.19310        -0.31410         4.06390
C           1.19610        -2.08190         4.59820
H           0.66010        -2.22960         5.45690
C           2.20010        -2.99690         4.23620
H           2.40410        -3.79960         4.83590
C           2.92400        -2.80470         3.04730
H           3.65280        -3.46950         2.78100
C           2.64280        -1.70160         2.21930
H           3.16870        -1.58720         1.34980

