#Put Keywords Here, check Charge and Multiplicity.

 Acetoin

0  1
C           0.04100        -0.34610        -0.73360
H           0.08280         0.14600         0.24320
O           0.33420         0.63240        -1.72900
H          -0.33060         1.34060        -1.59850
C          -1.40880        -0.86610        -0.92680
H          -1.53420        -1.31850        -1.91430
H          -2.11610        -0.03990        -0.83430
H          -1.64690        -1.61090        -0.16390
C           1.06590        -1.38180        -0.79820
O           0.90830        -2.34860        -1.53410
C           2.29330        -1.30120        -0.03020
H           2.60460        -0.26430         0.10560
H           3.10490        -1.83260        -0.53040
H           2.13710        -1.75370         0.94890

