#Put Keywords Here, check Charge and Multiplicity.

 Allyl cinnamate

0  1
C          -1.69320        -0.93630         1.04610
C          -2.12700        -1.59790         2.16040
H          -3.05650        -1.94810         2.12920
C          -1.39830        -1.81070         3.27630
H          -0.47110        -1.44900         3.27560
C          -1.80110        -2.48960         4.44280
C          -0.87260        -2.60850         5.51280
H           0.06770        -2.21090         5.43480
C          -1.20170        -3.26960         6.71050
H          -0.51200        -3.33760         7.46340
C          -2.47620        -3.83490         6.87080
H          -2.71780        -4.31550         7.73850
C          -3.41660        -3.73690         5.83320
H          -4.34560        -4.14880         5.94980
C          -3.08390        -3.07420         4.63590
H          -3.80590        -3.03330         3.91450
O          -2.45960        -0.87530         0.08850
O          -0.55620        -0.40450         0.97760
C           0.02350         0.23320        -0.05740
H          -0.58690         1.08830        -0.36580
H           0.08870        -0.44380        -0.91430
C           1.36690         0.66240         0.28040
H           2.11540         0.02910         0.11150
C           1.66100         1.86840         0.78230
H           0.95060         2.53420         0.97660
H           2.60660         2.11540         0.95990

