#Put Keywords Here, check Charge and Multiplicity.

 Allyl-2-ethylbutyrate

0  1
C           1.58150        -2.13340         1.15650
C           2.57270        -1.95300         0.09140
H           2.72000        -0.87780        -0.06920
C           3.97120        -2.54270         0.47550
H           4.67600        -2.32730        -0.33110
H           3.91030        -3.63070         0.57240
C           4.58790        -1.96360         1.77260
H           5.59880        -2.35300         1.90910
H           3.99490        -2.24560         2.64360
H           4.63880        -0.87510         1.71350
O           1.07750        -1.13790         1.66760
O           1.25790        -3.28720         1.52290
C           2.01560        -2.53360        -1.25030
H           1.95480        -3.62360        -1.18360
H           1.00070        -2.15540        -1.40390
C           2.81480        -2.16790        -2.52590
H           2.26150        -2.49750        -3.40750
H           3.78350        -2.66800        -2.53680
H           2.96510        -1.08790        -2.59640
C           0.50240        -3.66310         2.57090
H          -0.49830        -3.22250         2.50430
H           0.96460        -3.30280         3.49480
C           0.41470        -5.10990         2.63010
H           1.10360        -5.60350         3.15450
C          -0.53780        -5.81920         2.01220
H          -1.24690        -5.37520         1.48060
H          -0.54540        -6.80870         2.07770

