#Put Keywords Here, check Charge and Multiplicity.

 Allyl 2-furoate

0  1
O           0.45800         1.00300        -0.00410
C          -0.70800         0.30600         0.00050
C          -1.76660         1.21710         0.00190
H          -2.76550         0.99980        -0.00010
C          -1.21560         2.48810         0.00190
H          -1.72350         3.37400         0.00420
C           0.16190         2.32380        -0.00380
H           0.84780         3.07950        -0.00860
C          -0.78810        -1.06960        -0.00190
O           0.25590        -1.70820        -0.05970
O          -1.90200        -1.62840         0.04620
C          -2.20970        -2.93370         0.00730
H          -1.74500        -3.46110         0.84670
H          -1.83390        -3.37600        -0.92080
C          -3.65070        -3.07900         0.04160
H          -4.14550        -3.01740        -0.81880
C          -4.35670        -3.28050         1.16170
H          -3.91120        -3.33230         2.04830
H          -5.34460        -3.38080         1.11790

