#Put Keywords Here, check Charge and Multiplicity.

 Allyl mercaptan

0  1
C          -0.72950        -0.10900         0.02490
H          -0.27250        -1.02550         0.40600
H          -0.03930         0.71580         0.21760
C          -2.00360         0.15680         0.65880
H          -2.28820         1.10340         0.77050
C          -2.83560        -0.80470         1.07890
H          -3.70870        -0.56640         1.49010
H          -2.60090        -1.76540         0.98550
S          -0.96650        -0.26180        -1.75790
H           0.34350        -0.54600        -1.99440

