#Put Keywords Here, check Charge and Multiplicity.

 Allyl octanoate

0  1
C          -0.21410         0.17370        -0.36430
C          -1.57510         0.47180         0.04720
H          -2.20650         0.59860        -0.83890
H          -1.96780        -0.38170         0.60930
C          -1.67510         1.75830         0.91710
H          -1.14770         1.58940         1.86020
H          -1.18330         2.58740         0.39830
C          -3.14310         2.16740         1.23180
H          -3.67020         2.34390         0.28960
H          -3.63690         1.33920         1.74620
C          -3.25530         3.44480         2.11190
H          -2.76250         4.27540         1.59900
H          -2.73500         3.27490         3.05900
C          -4.73050         3.83520         2.40530
H          -5.24850         4.00710         1.45700
H          -5.22550         3.00270         2.91470
C          -4.85920         5.10850         3.28420
H          -4.34790         4.94610         4.23730
H          -4.37540         5.94980         2.77980
C          -6.32960         5.49100         3.57570
H          -6.36100         6.38880         4.19580
H          -6.83610         4.68320         4.10790
H          -6.86390         5.69250         2.64490
O           0.04870         0.16350        -1.56360
O           0.65450        -0.06350         0.50470
C           1.95260        -0.36190         0.33870
H           2.45350         0.43090        -0.22690
H           2.04910        -1.29180        -0.23350
C           2.59490        -0.55000         1.62580
H           2.56360        -1.45680         2.03290
C           3.22890         0.42230         2.29330
H           3.27960         1.34340         1.92870
H           3.66040         0.22830         3.16740

