#Put Keywords Here, check Charge and Multiplicity.

 Allyl sulfide

0  1
S           0.16750        -2.26950         0.83690
C           0.22270        -2.35690         2.65700
H          -0.73280        -2.73260         3.02720
H           0.37960        -1.35130         3.05680
C           1.26910        -3.27820         3.05340
H           1.19580        -4.22280         2.74840
C           2.32530        -2.94330         3.80410
H           3.01030        -3.62410         4.03340
H           2.44900        -2.01820         4.14320
C          -1.16760        -1.08700         0.46810
H          -1.23450        -0.99110        -0.61670
H          -0.88890        -0.11150         0.87530
C          -2.44550        -1.55450         0.96680
H          -2.78010        -2.43090         0.63930
C          -3.20030        -0.87620         1.84180
H          -4.06510        -1.25230         2.14940
H          -2.91360         0.00450         2.19900

