#Put Keywords Here, check Charge and Multiplicity.

 1001

0  1
N           1.81590         0.01560        -0.21260
C          -0.41270        -0.25550         0.85580
C          -1.84130        -0.60090         0.61560
C           0.41020        -0.32480        -0.45240
C          -2.28360        -1.94330         0.70030
C          -2.77740         0.40200         0.26540
C          -3.62650        -2.27370         0.43760
C          -4.12000         0.06950         0.00300
C          -4.54540        -1.26790         0.08970
H           0.02230        -0.94070         1.58830
H          -0.33400         0.75130         1.27450
H           0.00900         0.37650        -1.18720
H           0.36900        -1.33300        -0.87020
H          -1.62680        -2.68870         0.94710
H          -2.48360         1.37980         0.19260
H          -3.93500        -3.24720         0.49490
H          -4.78730         0.80010        -0.25560
H          -5.52120        -1.50940        -0.10430
H           1.83240         0.94910         0.20250
H           2.16540        -0.63240         0.49570

