#Put Keywords Here, check Charge and Multiplicity.

 Amyl butyrate

0  1
C          -0.09420        -0.01180         0.18610
C          -0.54310        -0.22730         1.55020
H          -1.35650        -0.96160         1.55820
H           0.28450        -0.64830         2.12850
C          -1.04300         1.06850         2.24640
H          -1.79750         1.55990         1.62370
H          -0.20340         1.75840         2.36970
C          -1.66200         0.78890         3.63540
H          -1.99520         1.72400         4.08870
H          -0.92590         0.32490         4.29400
H          -2.52240         0.12340         3.54150
O          -0.70050        -0.57020        -0.72340
O           0.89390         0.72450        -0.03240
C           1.45220         1.03930        -1.21550
H           1.81590         0.13070        -1.70760
H           0.69630         1.50520        -1.85780
C           2.63090         2.02830        -1.03730
H           3.39770         1.56330        -0.41210
H           2.25470         2.91470        -0.52090
C           3.25280         2.43420        -2.40400
H           3.60810         1.52510        -2.89780
H           2.47180         2.86710        -3.03400
C           4.44510         3.42920        -2.34480
H           4.81090         3.56720        -3.36630
H           5.26170         2.99500        -1.76110
C           4.10390         4.82390        -1.77510
H           3.26420         5.26050        -2.31520
H           3.85240         4.75500        -0.71710
H           4.96630         5.48250        -1.88500

