#Put Keywords Here, check Charge and Multiplicity.

 Isoamyl butyrate

0  1
C          -0.10140        -0.15820         0.04160
C          -0.41830        -1.50910         0.47180
H          -1.43380        -1.76970         0.15640
H           0.26340        -2.20520        -0.02410
C          -0.30830        -1.70000         2.00970
H          -0.85110        -0.90110         2.52320
H           0.74350        -1.64310         2.30620
C          -0.87700        -3.05740         2.48410
H          -0.37520        -3.88200         1.97260
H          -0.72340        -3.16900         3.55970
H          -1.94910        -3.11400         2.28080
O          -0.97490         0.50640        -0.50480
O           1.05000         0.29540         0.21750
C           1.52780         1.52440        -0.05530
H           1.40440         1.74700        -1.11980
H           0.96960         2.25990         0.52940
C           3.03190         1.60580         0.30460
H           3.53720         0.79760        -0.23320
H           3.15020         1.41020         1.37410
C           3.73010         2.95650        -0.05770
H           3.59560         3.12920        -1.13000
C           3.12980         4.18030         0.69220
H           3.12110         4.00730         1.77070
H           3.71240         5.08070         0.48680
H           2.10990         4.37430         0.35760
C           5.25950         2.86130         0.19970
H           5.68980         2.03110        -0.36270
H           5.75970         3.77710        -0.12020
H           5.46160         2.70600         1.26070

