#Put Keywords Here, check Charge and Multiplicity.

 a-Amylcinnamaldehyde

0  1
C           2.25860         1.26880         0.42000
H           2.98070         1.09720         1.08000
C           1.33110         0.29100         0.11740
C           1.69980        -1.01120         0.28860
H           2.63840        -1.11810         0.61290
C           1.04770        -2.26500         0.12000
C           1.79420        -3.43620         0.45240
H           2.75960        -3.36150         0.78180
C           1.25970        -4.73260         0.35710
H           1.82430        -5.54410         0.61870
C          -0.05450        -4.91080        -0.09360
H          -0.44990        -5.84880        -0.17220
C          -0.82350        -3.79120        -0.43860
H          -1.78340        -3.92060        -0.76440
C          -0.27940        -2.49720        -0.33610
H          -0.89860        -1.74820        -0.60800
O           2.26840         2.37710        -0.09770
C           0.01300         0.75010        -0.35110
H          -0.76890         0.23610         0.20560
H          -0.15810         1.80220        -0.09540
C          -0.16430         0.62800        -1.89690
H           0.51830         1.33230        -2.37940
H           0.10920        -0.37360        -2.23730
C          -1.61930         0.93250        -2.34950
H          -1.86880         1.96620        -2.09640
H          -2.29290         0.28550        -1.78290
C          -1.90390         0.69540        -3.85850
H          -2.98740         0.72730        -4.00580
H          -1.56410        -0.30090        -4.15150
C          -1.27070         1.73680        -4.80760
H          -1.60260         2.74170        -4.54310
H          -1.58430         1.52890        -5.83270
H          -0.18110         1.69830        -4.76390

