#Put Keywords Here, check Charge and Multiplicity.

 Isoamyl cinnamate

0  1
C          -0.75910         1.48760        -0.92400
C          -0.89810         2.79570        -1.28350
H          -1.47520         2.96860        -2.07250
C          -0.33240         3.85780        -0.67660
H           0.24020         3.66280         0.11490
C          -0.47550         5.21090        -1.05160
C           0.19280         6.20230        -0.28480
H           0.77510         5.93870         0.51470
C           0.07950         7.57230        -0.59020
H           0.56700         8.26620        -0.01920
C          -0.70300         7.99280        -1.67680
H          -0.78890         8.98990        -1.89590
C          -1.36670         7.03830        -2.46210
H          -1.93460         7.34120        -3.25700
C          -1.25210         5.66830        -2.15560
H          -1.75420         5.02220        -2.76380
O          -1.37410         0.67460        -1.61010
O          -0.04750         1.09590         0.04200
C           0.20310        -0.18680         0.39850
H          -0.74230        -0.69160         0.62980
H           0.66290        -0.68630        -0.45940
C           1.14880        -0.33860         1.62210
H           0.71140         0.21730         2.45690
H           2.11000         0.12430         1.38380
C           1.38890        -1.82470         2.06770
H           0.41780        -2.26710         2.31650
C           2.03060        -2.69640         0.94800
H           2.94590        -2.22850         0.58110
H           2.27270        -3.69420         1.31710
H           1.34170        -2.82590         0.11390
C           2.25710        -1.89870         3.35740
H           1.78990        -1.34020         4.17120
H           2.36950        -2.93510         3.68760
H           3.25150        -1.48540         3.17560

