#Put Keywords Here, check Charge and Multiplicity.

 a-Amylcinnamyl acetat

0  1
C          -0.12600         0.14100         0.16470
C          -0.70330        -0.97470         0.87630
H          -0.18430        -1.09800         1.82800
H          -1.76650        -0.83110         1.08460
H          -0.59130        -1.88740         0.28890
O          -0.81410         1.12830        -0.07110
O           1.07170         0.06380        -0.17780
C           1.89790         1.04070        -0.58800
H           1.48880         1.54050        -1.47320
H           1.93860         1.80250         0.19750
C           3.22970         0.49150        -0.91540
C           4.27380         0.73770        -0.07400
H           4.00020         1.21560         0.75350
C           5.67200         0.48400        -0.10480
C           6.45530         0.94540         0.99670
H           6.01830         1.42370         1.79020
C           7.85330         0.78360         1.05360
H           8.38250         1.15050         1.84800
C           8.52270         0.12210         0.01540
H           9.53640        -0.00630         0.05040
C           7.79050        -0.35960        -1.07740
H           8.27570        -0.84590        -1.83480
C           6.39790        -0.16580        -1.13930
H           5.95100        -0.51040        -1.97340
C           3.29850        -0.23610        -2.19200
H           2.31600        -0.63510        -2.46320
H           3.91000        -1.13040        -2.09140
C           3.75260         0.68210        -3.36700
H           2.92350         1.35150        -3.61290
H           4.59370         1.30550        -3.05340
C           4.16820        -0.09870        -4.64480
H           4.93940        -0.82400        -4.37410
H           3.31100        -0.65980        -5.02620
C           4.73940         0.79680        -5.78110
H           5.11530         0.14350        -6.57360
H           5.58890         1.37210        -5.40250
C           3.71050         1.76730        -6.40680
H           3.42560         2.54060        -5.69180
H           4.14770         2.25320        -7.28130
H           2.81650         1.22430        -6.72140

