#Put Keywords Here, check Charge and Multiplicity.

 6992616

0  1
O           3.58340         0.75110        -2.06520
C           1.68870         2.06320        -1.50660
C           1.68800         1.43170        -0.05110
C           1.87300         3.62240        -1.54950
C           1.89920         4.21210        -2.98890
C           2.68580         1.49750        -2.43500
C           2.87170         3.44270        -3.91900
C           2.66310         1.91000        -3.83160
C           0.75330         2.18580         0.96080
C           1.30020        -0.08350        -0.09200
C           0.82940         1.70800         2.42980
H           0.70110         1.85110        -1.93040
H           2.70710         1.49940         0.34470
H           2.79720         3.89620        -1.02850
H           1.03890         4.11470        -1.04620
H           2.19690         5.26290        -2.94630
H           0.89120         4.16740        -3.40930
H           2.72360         3.77090        -4.95030
H           3.90120         3.67980        -3.63810
H           3.44130         1.40800        -4.41340
H           1.70130         1.63850        -4.27330
H           1.02950         3.23950         0.99990
H          -0.28570         2.12300         0.62120
H           1.87810        -0.63680        -0.83140
H           0.24190        -0.20850        -0.33540
H           1.49570        -0.55580         0.87200
H           0.38700         0.71950         2.54730
H           0.28170         2.40350         3.06700
H           1.86610         1.68040         2.76600

