#Put Keywords Here, check Charge and Multiplicity.

 Isoamyl nonanoate

0  1
C          -0.85960         1.45770        -0.90380
C          -0.89380         2.88550        -1.16110
H          -1.61590         3.09340        -1.95820
H          -1.24840         3.38950        -0.25790
C           0.47890         3.49300        -1.56640
H           0.91220         2.91650        -2.38950
H           1.16250         3.43530        -0.71500
C           0.33970         4.97750        -2.00430
H          -0.12060         5.54910        -1.19410
H          -0.32790         5.02830        -2.86900
C           1.68940         5.64630        -2.37950
H           2.34860         5.64590        -1.50670
H           2.16770         5.06100        -3.16880
C           1.50250         7.10580        -2.88000
H           1.04480         7.70420        -2.08650
H           0.81550         7.08900        -3.73020
C           2.83100         7.78510        -3.31640
H           3.53250         7.76210        -2.47780
H           3.28310         7.21490        -4.13290
C           2.66690         9.26600        -3.76180
H           3.66100         9.68200        -3.94700
H           2.22030         9.84870        -2.95190
C           1.82000         9.45810        -5.04210
H           2.18980         8.81910        -5.84610
H           0.77220         9.21730        -4.85230
H           1.87630        10.49720        -5.37140
O          -1.57670         0.71990        -1.57250
O          -0.12870         1.00920         0.00500
C           0.13230        -0.27470         0.31390
H          -0.79800        -0.79850         0.55070
H           0.60290        -0.75480        -0.54780
C           1.08100        -0.36790         1.53330
H           0.62570         0.19710         2.35100
H           2.02440         0.12230         1.28340
C           1.36710        -1.82240         2.03250
H           0.41160        -2.29140         2.28910
C           2.04820        -2.71540         0.95680
H           2.95830        -2.24110         0.58590
H           2.30910        -3.68980         1.37470
H           1.37630        -2.89110         0.11560
C           2.22420        -1.78730         3.32750
H           1.73050        -1.18930         4.09710
H           2.36230        -2.79690         3.72210
H           3.20660        -1.35340         3.12480

