#Put Keywords Here, check Charge and Multiplicity.

 Isoamyl octanoate

0  1
C          -0.84340         1.49110        -0.92190
C          -0.89450         2.92470        -1.16210
H          -1.63840         3.14210        -1.93650
H          -1.23200         3.41740        -0.24720
C           0.46690         3.53810        -1.59960
H           1.16840         3.48230        -0.76190
H           0.87650         2.95200        -2.42760
C           0.33440         5.02080        -2.04860
H          -0.33640         5.07040        -2.91130
H          -0.11690         5.59740        -1.23630
C           1.69120         5.67250        -2.43350
H           2.14960         5.09330        -3.23930
H           2.35670         5.63980        -1.56730
C           1.53840         7.14640        -2.89900
H           0.87960         7.17700        -3.77160
H           1.07100         7.72760        -2.09890
C           2.89170         7.81030        -3.27300
H           3.56030         7.78740        -2.40780
H           3.36320         7.24450        -4.08160
C           2.72850         9.27810        -3.72880
H           3.70380         9.70060        -3.97750
H           2.28430         9.87670        -2.93150
H           2.09040         9.33390        -4.61260
O          -1.55060         0.75820        -1.60670
O          -0.10660         1.02990        -0.02230
C           0.13470        -0.25770         0.28730
H          -0.80520        -0.76650         0.53150
H           0.59220        -0.75020        -0.57680
C           1.08620        -0.35300         1.50590
H           0.62810         0.22070         2.31670
H           2.03150         0.13440         1.25230
C           1.36590        -1.80380         2.01970
H           0.40650        -2.26380         2.27730
C           2.05130        -2.71210         0.95780
H           2.96240        -2.24230         0.57950
H           2.31050        -3.68180         1.38970
H           1.37940        -2.90230         0.11940
C           2.21500        -1.76380         3.32270
H           1.71580        -1.16240         4.08650
H           2.34830        -2.77180         3.72360
H           3.20040        -1.33340         3.12730

