#Put Keywords Here, check Charge and Multiplicity.

 Isoamyl salicylate

0  1
C           0.07790        -0.06040        -0.17190
C           0.27600        -1.45360        -0.21250
C           1.56040        -2.06090        -0.07570
O           2.60580        -1.37490         0.08020
H           3.39310        -1.75960         0.17020
C           1.70640        -3.46470        -0.12100
H           2.62930        -3.89430        -0.01670
C           0.58730        -4.29180        -0.31370
H           0.69720        -5.30790        -0.35800
C          -0.68480        -3.71830        -0.45020
H          -1.50520        -4.31150        -0.58860
C          -0.83600        -2.32330        -0.39660
H          -1.78400        -1.95030        -0.49700
O          -1.02670         0.40730        -0.43590
O           1.00620         0.72720         0.11880
C           0.98470         2.05890         0.32060
H           0.59280         2.56630        -0.56670
H           0.33850         2.27730         1.17470
C           2.41020         2.59150         0.61390
H           3.06870         2.24000        -0.18710
H           2.76420         2.14500         1.54670
C           2.52160         4.14990         0.70950
H           2.12050         4.57420        -0.21730
C           1.70670         4.75100         1.89380
H           1.98650         4.27790         2.83850
H           1.88670         5.82520         1.97800
H           0.63560         4.61080         1.73460
C           4.01310         4.58520         0.79550
H           4.57410         4.20460        -0.06190
H           4.09380         5.67460         0.79040
H           4.47220         4.20370         1.71050

