#Put Keywords Here, check Charge and Multiplicity.

 trans-Anethole

0  1
C           1.50470        -0.23960         0.00260
H           1.61690        -1.32230         0.05530
H           2.01110         0.20240         0.86440
H           1.97440         0.11620        -0.91810
O           0.19890         0.05890         0.02140
C          -0.39660         1.19130        -0.00120
C          -1.80030         1.19340         0.13510
H          -2.30880         0.30760         0.22890
C          -2.52400         2.40420         0.15400
H          -3.53910         2.34490         0.26570
C          -1.86740         3.65940         0.02730
C          -2.51430         4.90880         0.04790
H          -1.93500         5.71230        -0.05340
C          -3.83100         5.15430         0.19070
H          -4.47360         4.40500         0.28800
C          -4.38590         6.49640         0.19020
H          -3.68390         7.22550         0.60380
H          -5.29380         6.52560         0.79510
H          -4.63970         6.78720        -0.83100
C          -0.45710         3.63720        -0.12860
H           0.07450         4.50740        -0.23260
C           0.26430         2.43210        -0.14310
H           1.27880         2.47310        -0.25720

