#Put Keywords Here, check Charge and Multiplicity.

 Anisyl acetate

0  1
C          -0.32270        -0.07160         0.07500
C          -0.68180        -1.12650         0.99210
H          -0.17730        -0.97090         1.94710
H          -1.75820        -1.16170         1.17580
H          -0.37220        -2.08830         0.58170
O          -1.21180         0.62890        -0.39180
O           0.88720         0.05680        -0.20700
C           1.60890         0.95460        -0.76910
C           2.98630         0.66080        -0.86700
H           3.34490        -0.23540        -0.52620
C           3.89090         1.58910        -1.41810
H           4.88160         1.34350        -1.46790
C           3.43430         2.84070        -1.89360
C           2.05590         3.12260        -1.82940
H           1.69560         4.01450        -2.18070
C           1.15500         2.19870        -1.27060
H           0.17040         2.45530        -1.23320
O           4.17910         3.76090        -2.37390
C           5.50980         3.86720        -2.46330
H           5.74860         4.83160        -2.91520
H           5.96380         3.83050        -1.46990
H           5.92900         3.07620        -3.08910

