#Put Keywords Here, check Charge and Multiplicity.

 Anisyl alcohol

0  1
C           0.48010         1.28010        -3.14000
C          -0.25770         0.18600        -2.64720
H          -0.76040        -0.42750        -3.29300
C          -0.30780        -0.07020        -1.26370
H          -0.85690        -0.86620        -0.93060
C           0.38610         0.76180        -0.35000
C           1.15270         1.83330        -0.85830
H           1.68300         2.43340        -0.22040
C           1.19790         2.09540        -2.24190
H           1.75490         2.88190        -2.58900
O           0.36480         0.61550         0.92080
C          -0.30430        -0.25120         1.69200
H          -0.06490        -0.04240         2.73420
H          -1.38330        -0.14130         1.55860
H          -0.01180        -1.27990         1.47010
O           0.49130         1.51930        -4.37510
H           0.94460         2.20270        -4.69430

