#Put Keywords Here, check Charge and Multiplicity.

 6992617

0  1
O           3.31030         0.69910        -2.24070
C           1.64690         2.15330        -1.38230
C           1.83890         1.49790         0.04820
C           1.94730         3.69430        -1.44640
C           1.79230         4.30260        -2.87030
C           2.43120         1.52460        -2.46100
C           2.54960         3.47420        -3.94320
C           2.22520         1.96240        -3.83270
C           1.33280         0.00900         0.07920
C           1.15950         2.31010         1.19500
C           1.77320        -0.81130         1.31940
H           0.58940         2.02900        -1.63850
H           2.91180         1.49790         0.26640
H           2.96250         3.88200        -1.08390
H           1.25550         4.23950        -0.80050
H           2.17300         5.32830        -2.87360
H           0.73140         4.33910        -3.13100
H           2.27680         3.83100        -4.93930
H           3.62690         3.62150        -3.81630
H           2.86290         1.41000        -4.53000
H           1.18540         1.78230        -4.11940
H           1.70290        -0.53410        -0.79190
H           0.24150        -0.01120         0.01860
H           1.61230         3.29710         1.29160
H           0.09020         2.42660         1.00650
H           1.28970         1.81750         2.15920
H           2.82870        -0.64350         1.54080
H           1.62580        -1.87490         1.12470
H           1.17880        -0.54350         2.19380

