#Put Keywords Here, check Charge and Multiplicity.

 Anisyl formate

0  1
C           1.30280        -0.24490         0.07280
H           2.03020         0.42860         0.05000
O           1.60650        -1.42640         0.11350
O           0.10120         0.06050         0.06710
C          -0.51360         1.18200         0.02330
C          -1.92270         1.11700        -0.01930
H          -2.39670         0.21010         0.02480
C          -2.69680         2.28720        -0.13560
H          -3.71560         2.20160        -0.17730
C          -2.07320         3.55690        -0.19870
C          -0.66930         3.62530        -0.10710
H          -0.19790         4.53300        -0.12670
C           0.10340         2.45680         0.00310
H           1.11790         2.54990         0.06490
O          -2.67800         4.67110        -0.34340
C          -3.95860         4.94800        -0.59420
H          -4.06600         6.02780        -0.67820
H          -4.27140         4.49300        -1.53640
H          -4.59800         4.59590         0.21570

