#Put Keywords Here, check Charge and Multiplicity.

 Anisyl propionate

0  1
C           1.24760         2.66400        -4.95300
C           0.81890         2.77000        -6.33420
H           1.38570         3.54580        -6.85910
H           1.02660         1.81980        -6.83230
C          -0.68590         3.10160        -6.47130
H          -0.96110         3.10550        -7.52800
H          -1.29920         2.35690        -5.95830
H          -0.90230         4.08640        -6.04970
O           2.11970         3.42510        -4.55370
O           0.72530         1.77440        -4.24770
C           0.68020         1.50220        -2.99760
C          -0.08330         0.36840        -2.64250
H          -0.54370        -0.18840        -3.36760
C          -0.23650        -0.01360        -1.29600
H          -0.79930        -0.83960        -1.07610
C           0.37640         0.73670        -0.26480
C           1.15990         1.85400        -0.61770
H           1.62690         2.40400         0.10880
C           1.30440         2.23940        -1.96160
H           1.86620         3.06650        -2.16230
O           0.27190         0.49170         0.98460
C          -0.45620        -0.40710         1.65460
H          -0.26170        -0.28260         2.72050
H          -1.52240        -0.24960         1.47860
H          -0.18140        -1.42340         1.36790

