#Put Keywords Here, check Charge and Multiplicity.

 Benzaldehyde dimethyl acetal

0  1
C          -0.38160         0.63930        -1.16790
H          -0.00150         1.66860        -1.16490
C          -1.87050         0.66780        -1.18460
C          -2.60510        -0.54360        -1.19130
H          -2.11870        -1.44300        -1.18480
C          -4.01160        -0.53550        -1.20700
H          -4.52840        -1.41680        -1.21180
C          -4.70610         0.68610        -1.21620
H          -5.72700         0.69370        -1.22770
C          -3.99380         1.89860        -1.20970
H          -4.49800         2.78730        -1.21640
C          -2.58720         1.88920        -1.19400
H          -2.09120         2.78340        -1.18950
O           0.01690        -0.03090        -2.38560
O          -0.01040        -0.02780         0.06010
C           1.40410         0.02120        -2.75780
H           1.95830        -0.79010        -2.28730
H           1.46390        -0.11710        -3.83600
H           1.87190         0.97780        -2.51290
C           1.36810         0.02510         0.46300
H           1.93260        -0.78740         0.00690
H           1.40390        -0.11050         1.54260
H           1.84140         0.98100         0.22630

