#Put Keywords Here, check Charge and Multiplicity.

 Benzoic acid

0  1
C          -0.70810        -1.23600         0.00000
C          -0.01620        -0.02200         0.00000
C          -0.69920         1.22190         0.00000
H          -1.72180         1.26010         0.00000
C           0.00470         2.44070         0.00000
H          -0.50590         3.32580         0.00000
C           1.40890         2.44290         0.00000
H           1.92030         3.32660         0.00000
C           2.10850         1.22650         0.00000
H           3.13090         1.22420         0.00000
C           1.40360         0.01030         0.00000
H           1.94830        -0.85460         0.00000
O          -1.93080        -1.29140         0.00000
O          -0.12010        -2.31420         0.00000
H          -0.56460        -3.07380         0.00000

