#Put Keywords Here, check Charge and Multiplicity.

 Benzophenone

0  1
C          -0.34700        -1.20830         0.00000
C           0.21410         0.12230         0.00000
C           1.59730         0.46720         0.00000
H           2.32950        -0.21430         0.00000
C           2.06630         1.79590         0.00000
H           3.07150         1.98850         0.00000
C           1.16340         2.86380         0.00000
H           1.50470         3.82750         0.00000
C          -0.20880         2.59370         0.00000
H          -0.87950         3.36540         0.00000
C          -0.66150         1.26150         0.00000
H          -1.67880         1.15040         0.00000
O          -1.57580        -1.20220         0.00000
C           0.20080        -2.54460         0.00000
C           1.58050        -2.90320         0.00000
H           2.31950        -2.22900         0.00000
C           2.03620        -4.23660         0.00000
H           3.03940        -4.43920         0.00000
C           1.12270        -5.29540         0.00000
H           1.45440        -6.26250         0.00000
C          -0.24670        -5.01160         0.00000
H          -0.92510        -5.77660         0.00000
C          -0.68610        -3.67500         0.00000
H          -1.70230        -3.55370         0.00000

