#Put Keywords Here, check Charge and Multiplicity.

 Benzyl butyrate

0  1
C          -1.65280        -2.85190        -1.39740
C          -1.88440        -3.22730        -2.78380
H          -2.49690        -4.13560        -2.82210
H          -2.45100        -2.42800        -3.27080
C          -0.57550        -3.48370        -3.58200
H           0.04930        -4.20920        -3.05040
H          -0.01820        -2.54600        -3.65800
C          -0.83160        -4.01910        -5.01150
H          -1.42840        -3.30920        -5.58780
H           0.12070        -4.16790        -5.52500
H          -1.35730        -4.97590        -4.97500
O          -2.08320        -3.59170        -0.51790
O          -1.04610        -1.78950        -1.12270
C          -0.74590        -1.28870         0.09260
H          -0.14150        -2.01540         0.64630
H          -1.66620        -1.13810         0.66710
C          -0.00590        -0.00090        -0.00090
C          -0.69530         1.23560        -0.02800
H          -1.71740         1.25800        -0.03770
C           0.00890         2.45360        -0.02650
H          -0.49900         3.34120        -0.03170
C           1.41520         2.45210        -0.01540
H           1.92750         3.33540        -0.00360
C           2.11560         1.23290        -0.02560
H           3.13800         1.23210        -0.03060
C           1.40910         0.01690        -0.02650
H           1.93650        -0.85880        -0.03500

