#Put Keywords Here, check Charge and Multiplicity.

 Benzyl isobutyrate

0  1
C          -1.64260        -2.84470        -1.43010
C          -1.86590        -3.23310        -2.82000
H          -2.41380        -4.18240        -2.84250
C          -0.52860        -3.48740        -3.56510
H           0.04840        -2.56570        -3.66460
H           0.07500        -4.22130        -3.02610
H          -0.72350        -3.88260        -4.56530
C          -2.75420        -2.20290        -3.56690
H          -2.24500        -1.24200        -3.66570
H          -3.69260        -2.04770        -3.02960
H          -2.99700        -2.56970        -4.56750
O          -2.06970        -3.58430        -0.54940
O          -1.02980        -1.78290        -1.15010
C          -0.74220        -1.28530         0.06920
H          -0.14800        -2.01500         0.63000
H          -1.67100        -1.13550         0.63040
C           0.00020         0.00050        -0.01030
C          -0.69280         1.23440        -0.02360
H          -1.71600         1.25450        -0.02250
C           0.01230         2.45400        -0.01500
H          -0.49680         3.34060        -0.00550
C           1.41870         2.45730        -0.00850
H           1.93060         3.34380         0.00490
C           2.11900         1.23770        -0.01500
H           3.14140         1.24000        -0.00550
C           1.41530         0.01730        -0.02360
H           1.94430        -0.85880        -0.02240

