#Put Keywords Here, check Charge and Multiplicity.

 Benzyl mercaptan

0  1
C          -0.75070        -1.30030        -0.00810
H          -0.18950        -2.09080         0.49410
H          -1.71590        -1.20950         0.49410
C          -0.01030        -0.01780         0.01470
C          -0.70240         1.21710         0.00840
H          -1.72470         1.23930        -0.00140
C           0.00010         2.43650         0.00310
H          -0.51110         3.32150        -0.00190
C           1.40650         2.43610         0.00160
H           1.91760         3.32150        -0.00100
C           2.11000         1.21840         0.00310
H           3.13200         1.21810        -0.00190
C           1.40520         0.00020         0.00840
H           1.93560        -0.87400        -0.00140
S          -1.02880        -1.78200        -1.72410
H          -1.68880        -2.92510        -1.38860

