#Put Keywords Here, check Charge and Multiplicity.

 Benzyl isovalerate

0  1
C          -1.71480        -2.82020        -1.40380
C          -1.88590        -3.23750        -2.78500
H          -2.43110        -2.44630        -3.30670
H          -2.51070        -4.13710        -2.82310
C          -0.55550        -3.52300        -3.55130
H          -0.00730        -2.57910        -3.63320
C           0.36580        -4.53620        -2.81480
H          -0.13990        -5.49710        -2.68780
H           1.28610        -4.69310        -3.38120
H           0.64270        -4.15280        -1.83110
C          -0.84910        -4.01350        -4.99870
H          -1.44900        -3.27560        -5.53540
H           0.08220        -4.15860        -5.55070
H          -1.39430        -4.96160        -4.98400
O          -2.18070        -3.53430        -0.52220
O          -1.10350        -1.75910        -1.13290
C          -0.75870        -1.27990         0.07870
H          -0.14520        -2.02170         0.60010
H          -1.65890        -1.12670         0.68180
C          -0.00910         0.00260        -0.00890
C          -0.69480         1.24180        -0.02760
H          -1.71680         1.26660        -0.03410
C           0.01340         2.46050        -0.02090
H          -0.49440         3.35010        -0.01740
C           1.41880         2.45720        -0.01190
H           1.93340         3.34160         0.00250
C           2.11710         1.23680        -0.01910
H           3.14120         1.23570        -0.01590
C           1.40710         0.01910        -0.02370
H           1.93470        -0.85710        -0.02880

