#Put Keywords Here, check Charge and Multiplicity.

 Bornyl acetate

0  1
C           3.31500        -0.13000        -0.00100
C           3.63300         1.31300         0.25500
H           3.36000         1.59100         1.27600
H           4.71300         1.45900         0.15400
H           3.14600         1.95400        -0.48000
O           4.19300        -0.93800        -0.29000
O           2.02200        -0.51500         0.11300
C           0.94600         0.40000         0.35100
H           1.19500         1.06800         1.18700
C           0.48400         1.26200        -1.02400
H           0.78300         0.82400        -1.97400
H           0.85400         2.29300        -0.97400
C          -0.88700         1.04600        -0.52700
H          -0.54100         1.73400         0.29000
C          -2.21100         1.46100        -0.03800
H          -3.09100         1.10000        -0.56700
H          -2.34400         2.51900         0.21800
C          -1.79000         0.57400         1.33300
H          -1.42100         1.23300         2.13100
H          -2.63900         0.00200         1.71600
C          -0.50300        -0.42000         0.78900
C          -1.04200        -0.55300        -0.61200
C          -0.21400        -1.37600        -1.63700
H          -0.29800        -2.44900        -1.42500
H          -0.60600        -1.20700        -2.64800
H           0.85600        -1.19100        -1.69200
C          -2.44600        -1.21900        -0.74000
H          -3.19700        -0.94500         0.00200
H          -2.87400        -1.00100        -1.72600
H          -2.36500        -2.31000        -0.65100
C          -0.29800        -1.65400         1.63000
H           0.38600        -2.36100         1.15000
H           0.12300        -1.38500         2.60400
H          -1.24300        -2.17700         1.80700

