#Put Keywords Here, check Charge and Multiplicity.

 6992619

0  1
O           2.13510         0.64500         2.79180
C           1.63570         2.22150         1.09040
C           2.33720         1.29100         0.00880
C           2.28480         3.64630         1.24540
C           1.59630         4.53630         2.32180
C           1.54250         1.66190         2.45380
C           1.45990         3.78900         3.67280
C           0.81230         2.39330         3.48180
C           2.48930         1.97730        -1.39830
C           1.59400        -0.07800        -0.15270
C           3.29210         1.19780        -2.46970
H           0.61030         2.37650         0.73810
H           3.34900         1.07430         0.36700
H           2.21830         4.20270         0.31030
H           3.34530         3.53940         1.49590
H           2.18060         5.44860         2.47200
H           0.60260         4.82670         1.96750
H           2.45350         3.66670         4.11810
H           0.85580         4.38590         4.36180
H          -0.23430         2.50360         3.18260
H           0.82950         1.86250         4.43910
H           3.02910         2.91680        -1.28800
H           1.49910         2.21060        -1.80050
H           1.48460        -0.59810         0.79620
H           0.59770         0.06980        -0.57730
H           2.15750        -0.75400        -0.79670
H           4.28820         0.95590        -2.09510
H           3.39880         1.81130        -3.36650
H           2.78360         0.28050        -2.76000

