#Put Keywords Here, check Charge and Multiplicity.

 Isobornyl propionate

0  1
C           2.71500         0.80400        -0.02400
C           3.86300        -0.01500        -0.55300
H           4.67900         0.66800        -0.81500
H           3.55200        -0.50900        -1.48100
C           4.33500        -1.02400         0.47500
H           4.63200        -0.52600         1.40400
H           3.54400        -1.74000         0.72000
H           5.19500        -1.58300         0.09400
O           2.80900         1.97500         0.31700
O           1.58100         0.05200         0.01600
C           0.42100         0.72600         0.49600
H           0.64000         1.18000         1.47500
C          -0.18900         1.86900        -0.58800
H           0.10900         1.73700        -1.62600
H           0.08300         2.88000        -0.26400
C          -1.50500         1.37300        -0.14600
H          -1.19700         1.85300         0.82100
C          -2.84200         1.48600         0.45800
H          -3.70100         1.18000        -0.13700
H          -3.07600         2.41300         0.99300
C          -2.26600         0.31900         1.53000
H          -1.93400         0.77800         2.47100
H          -3.03100        -0.42900         1.75600
C          -0.90600        -0.33900         0.71900
C          -1.49100        -0.15300        -0.65800
C          -0.62600        -0.57300        -1.87800
H          -0.58800        -1.66600        -1.96500
H          -1.07400        -0.18300        -2.80000
H           0.41700        -0.26300        -1.89200
C          -2.82000        -0.91700        -0.94200
H          -3.31200        -0.49500        -1.82600
H          -2.61900        -1.97500        -1.15200
H          -3.56300        -0.93900        -0.14300
C          -0.53200        -1.72100         1.19000
H           0.20300        -2.18900         0.52800
H          -0.10000        -1.67600         2.19500
H          -1.40700        -2.37800         1.23100

