#Put Keywords Here, check Charge and Multiplicity.

 Bornyl valerate

0  1
C           1.55800         1.72600         0.15300
C           2.88000         1.21200         0.66000
H           2.75700         0.86700         1.69400
H           3.57900         2.05500         0.69400
C           3.40800         0.10300        -0.24100
H           3.48600         0.47100        -1.27200
H           2.69500        -0.73000        -0.26100
C           4.77100        -0.39900         0.23500
H           4.69200        -0.77300         1.26200
H           5.49000         0.42900         0.24500
C           5.30000        -1.50800        -0.66000
H           6.27500        -1.85200        -0.30200
H           4.61900        -2.36600        -0.66700
H           5.42100        -1.15800        -1.69000
O           1.43300         2.72600        -0.54200
O           0.54800         0.91000         0.56200
C          -0.75300         1.28800         0.11900
H          -0.94300         2.33700         0.39500
C          -1.00200         1.03500        -1.53200
H          -0.33400         0.31500        -2.00200
H          -0.93900         1.98600        -2.07400
C          -2.34900         0.60700        -1.11700
H          -2.45300         1.69300        -0.85200
C          -3.81900         0.66700        -1.08100
H          -4.37700        -0.22700        -1.35600
H          -4.29800         1.54900        -1.52100
C          -3.59600         0.88500         0.57600
H          -3.66600         1.94700         0.84700
H          -4.33600         0.32700         1.15700
C          -1.99100         0.34400         0.84200
C          -2.04200        -0.70600        -0.23700
C          -3.11800        -1.82000        -0.05300
H          -2.77900        -2.56500         0.67800
H          -4.09700        -1.51100         0.31200
H          -3.27900        -2.34300        -1.00400
C          -0.76300        -1.54800        -0.49100
H          -0.61800        -2.28100         0.31200
H          -0.86700        -2.10500        -1.43100
H           0.18600        -1.02200        -0.55400
C          -1.72000        -0.06400         2.26800
H          -0.76300        -0.58500         2.36400
H          -1.69200         0.81700         2.91700
H          -2.50000        -0.73300         2.64600

