#Put Keywords Here, check Charge and Multiplicity.

 Isobutyl acetate

0  1
C          -0.17750         0.15800         0.13130
C          -0.71150        -0.95980         0.87380
H          -0.20290        -1.03570         1.83680
H          -1.78310        -0.84590         1.05490
H          -0.55050        -1.88440         0.31560
O          -0.91800         1.07930        -0.19480
O           1.03720         0.14620        -0.14710
C           1.77730         1.04140        -0.82450
H           1.38030         1.16070        -1.83900
H           1.72280         2.00830        -0.31250
C           3.26670         0.59100        -0.90200
H           3.64270         0.48480         0.12240
C           4.13740         1.67130        -1.60190
H           5.18660         1.36750        -1.61780
H           4.07060         2.61970        -1.06380
H           3.80470         1.83050        -2.63030
C           3.41970        -0.78860        -1.60320
H           4.47140        -1.07790        -1.65680
H           3.01440        -0.75270        -2.61670
H           2.88860        -1.55960        -1.04190

