#Put Keywords Here, check Charge and Multiplicity.

 Isobutyl alcohol

0  1
C           0.99150         0.10540        -0.86750
H           0.47940         0.89790        -1.42210
H           1.27010         0.48980         0.11660
C           2.25930        -0.35470        -1.64260
H           1.93290        -0.73600        -2.61400
C           2.99080        -1.50850        -0.90390
H           3.34050        -1.17520         0.07530
H           2.32030        -2.36000        -0.76410
H           3.85100        -1.84810        -1.48540
C           3.22330         0.83270        -1.90880
H           2.71430         1.62020        -2.46980
H           3.58540         1.25240        -0.96810
H           4.08160         0.50060        -2.49680
O           0.06880        -0.96710        -0.68850
H          -0.65230        -0.59030        -0.14060

