#Put Keywords Here, check Charge and Multiplicity.

 Butyl anthranilate

0  1
C          -0.09850        -0.07420         0.13570
C          -0.41340        -1.44850         0.05960
C           0.56930        -2.47980        -0.04140
N           1.94570        -2.21920        -0.07440
H           2.11650        -1.59470        -0.86430
H           2.17560        -1.69890         0.77390
C           0.19160        -3.83880        -0.11420
H           0.90150        -4.57250        -0.18640
C          -1.16230        -4.20850        -0.08890
H          -1.43220        -5.19480        -0.14190
C          -2.14740        -3.21700         0.00960
H          -3.13590        -3.48130         0.02840
C          -1.77650        -1.86360         0.08230
H          -2.53260        -1.17740         0.15320
O          -1.00990         0.74740         0.22080
O           1.08560         0.35480         0.12030
C           1.52920         1.63010         0.18550
H           1.11280         2.19540        -0.65560
H           1.17670         2.08250         1.11890
C           3.07650         1.73840         0.13660
H           3.50250         1.17670         0.97110
H           3.43900         1.28880        -0.79060
C           3.55510         3.21760         0.21350
H           3.19200         3.66820         1.14030
H           3.12860         3.78020        -0.62040
C           5.09020         3.38620         0.16890
H           5.49100         2.98380        -0.76220
H           5.35100         4.44590         0.22690
H           5.55480         2.87100         1.01050

