#Put Keywords Here, check Charge and Multiplicity.

 2,6-Di-tert-butyl-p-cresol

0  1
C           1.73200        -1.02560        -0.87320
C           2.69240        -0.92630        -1.93140
C           3.29730         0.34780        -2.09840
H           3.96550         0.51040        -2.84810
C           3.02220         1.44230        -1.25760
C           2.14160         1.25610        -0.17810
H           1.98750         2.06920         0.42130
C           1.49570         0.01840         0.08290
C           3.64630         2.77480        -1.47200
H           2.87020         3.53670        -1.56460
H           4.28430         3.03040        -0.62300
H           4.25480         2.80620        -2.37850
C           0.63700        -0.17290         1.34200
C           1.18650        -1.38800         2.17590
H           0.64120        -1.50590         3.11560
H           1.09940        -2.33890         1.65520
H           2.24220        -1.23920         2.41730
C           0.64960         1.04590         2.34620
H           0.10030         0.82570         3.26600
H           1.66950         1.30730         2.63750
H           0.18450         1.93130         1.90520
C          -0.87380        -0.38490         0.97430
H          -1.47610        -0.52330         1.87670
H          -1.04600        -1.25650         0.34760
H          -1.26770         0.48350         0.43990
C           3.07670        -2.12230        -2.82500
C           1.85870        -2.57380        -3.70490
H           2.12610        -3.42230        -4.34100
H           1.53300        -1.75610        -4.35160
H           1.00330        -2.88800        -3.10850
C           3.56850        -3.32970        -1.94410
H           3.98390        -4.13400        -2.55680
H           4.34390        -3.00780        -1.24540
H           2.76100        -3.77820        -1.36740
C           4.25220        -1.83390        -3.83620
H           4.52380        -2.72310        -4.41230
H           3.97120        -1.06090        -4.55670
H           5.15160        -1.50510        -3.30860
O           1.08220        -2.09910        -0.79840
H           0.46320        -2.23750        -0.19570

