#Put Keywords Here, check Charge and Multiplicity.

 Isobutyl benzoate

0  1
C          -0.97990        -1.11240        -0.00970
C          -0.15170         0.01850        -0.00430
C          -0.69310         1.33230        -0.00410
H          -1.70510         1.48130        -0.00490
C           0.13790         2.46800        -0.00190
H          -0.27350         3.40460        -0.00220
C           1.53400         2.31670         0.00150
H           2.13890         3.14020         0.00410
C           2.09750         1.03030         0.00180
H           3.11430         0.91890         0.00340
C           1.26440        -0.10360         0.00020
H           1.71140        -1.02420         0.00090
O          -2.20000        -0.98820        -0.06030
O          -0.47570        -2.25690         0.02940
C          -1.05800        -3.46890         0.04850
H          -1.69530        -3.56150         0.93470
H          -1.68610        -3.57270        -0.84260
C           0.00960        -4.60270         0.04810
H           0.63190        -4.47200        -0.84340
C          -0.65980        -6.00100        -0.06290
H           0.10200        -6.78230        -0.11280
H          -1.26400        -6.06160        -0.97090
H          -1.30320        -6.19440         0.79860
C           0.94950        -4.52980         1.28430
H           1.66890        -5.35160         1.26360
H           0.37560        -4.58920         2.21210
H           1.51130        -3.59340         1.27970

