#Put Keywords Here, check Charge and Multiplicity.

 Butyl butyrate

0  1
C          -0.05840         0.03520         0.19220
C          -0.53100        -0.20330         1.54210
H          -1.34260        -0.93820         1.52010
H           0.28740        -0.63640         2.12300
C          -1.04160         1.08080         2.24790
H          -1.79830         1.57140         1.62750
H          -0.20480         1.77220         2.38040
C          -1.66130         0.78360         3.63300
H          -2.00160         1.71240         4.09460
H          -0.92490         0.31740         4.29120
H          -2.51850         0.11420         3.53000
O          -0.63800        -0.52870        -0.73090
O           0.92570         0.78540        -0.00780
C           1.47860         1.11940        -1.18870
H           1.82750         0.20880        -1.68930
H           0.71780         1.60040        -1.81420
C           2.67630         2.09280        -1.04340
H           2.33820         3.01240        -0.55800
H           3.44610         1.63600        -0.41520
C           3.27850         2.43360        -2.43540
H           2.50120         2.88490        -3.05850
H           3.60220         1.50800        -2.91970
C           4.48280         3.39870        -2.40220
H           4.83320         3.57230        -3.42300
H           5.30260         2.97130        -1.82360
H           4.19660         4.35720        -1.96730

