#Put Keywords Here, check Charge and Multiplicity.

 Butyl isobutyrate

0  1
C           2.05750        -0.72890         1.08090
C           2.16280        -0.21480        -0.27980
H           1.18760        -0.31520        -0.77220
C           3.16490        -1.04740        -1.12240
H           4.18090        -0.93630        -0.73900
H           2.89260        -2.10560        -1.09740
H           3.14760        -0.71880        -2.16430
C           2.50140         1.29940        -0.28720
H           3.49850         1.47640         0.12040
H           1.77290         1.85290         0.31080
H           2.46740         1.68970        -1.30710
O           0.97140        -1.16640         1.44750
O           3.05040        -0.72160         1.84860
C           3.11500        -1.15760         3.12170
H           2.39230        -0.60040         3.72870
H           2.85090        -2.22100         3.15040
C           4.52380        -0.98130         3.74450
H           5.25450        -1.53620         3.14890
H           4.79800         0.07750         3.72460
C           4.54960        -1.49690         5.21040
H           4.26580        -2.55290         5.22050
H           3.81020        -0.94250         5.79500
C           5.91560        -1.36210         5.91580
H           6.22040        -0.31620         5.96520
H           5.83430        -1.74820         6.93390
H           6.67840        -1.93510         5.38770

