#Put Keywords Here, check Charge and Multiplicity.

 Isobutyl isobutyrate

0  1
C           2.04130        -0.74170         1.08510
C           2.16610        -0.22260        -0.27400
H           1.19950        -0.31510        -0.78230
C           3.17490        -1.04920        -1.11770
H           4.19250        -0.94960        -0.73380
H           2.90330        -2.10710        -1.11070
H           3.16330        -0.70920        -2.15550
C           2.51150         1.29140        -0.27420
H           3.50450         1.47290         0.14320
H           1.78000         1.84940         0.31450
H           2.48870         1.68220        -1.29360
O           0.95740        -1.18990         1.44650
O           3.02530        -0.72050         1.86340
C           3.09770        -1.15780         3.13980
H           2.34900        -0.63860         3.74760
H           2.86860        -2.22920         3.15330
C           4.50260        -0.95170         3.77950
H           5.22320        -1.52220         3.18440
C           4.54510        -1.52200         5.22760
H           5.54540        -1.40860         5.65110
H           4.29870        -2.58650         5.22760
H           3.83360        -1.00090         5.87340
C           4.95800         0.53450         3.76420
H           5.94560         0.63090         4.22330
H           4.25570         1.16230         4.31740
H           5.02680         0.90300         2.73800

