#Put Keywords Here, check Charge and Multiplicity.

 Butyl butyryllactate

0  1
C          -1.24870         1.33640        -0.80380
C          -1.46810         2.74770        -1.14850
O          -0.19540         3.33500        -1.44850
H          -0.38240         4.27850        -1.64800
C          -2.00310         3.50470         0.10840
H          -1.30350         3.41710         0.94290
H          -2.13040         4.56800        -0.10820
H          -2.96800         3.10030         0.42380
O          -1.96850         0.45110        -1.26030
O          -0.33180         1.05090        -0.00260
C          -2.32200         2.91660        -2.34230
O          -3.47160         3.32130        -2.21560
C          -1.83480         2.58250        -3.68390
H          -1.13360         3.36040        -3.99860
H          -1.28140         1.64240        -3.63080
C          -2.92990         2.42720        -4.77680
H          -3.40330         3.39720        -4.95250
H          -3.69670         1.73100        -4.42610
C          -2.37740         1.89780        -6.11910
H          -3.18630         1.83850        -6.85030
H          -1.95330         0.89890        -5.99080
H          -1.60440         2.56660        -6.50280
C           0.23130        -0.13910         0.26950
H          -0.53870        -0.85120         0.58680
H           0.72630        -0.52490        -0.62850
C           1.27380         0.01890         1.40300
H           2.06010         0.70190         1.06960
H           0.77950         0.46790         2.26840
C           1.91290        -1.33040         1.82510
H           2.46380        -1.74820         0.97780
H           1.12470        -2.03750         2.09920
C           2.87570        -1.18600         3.02510
H           3.27960        -2.16490         3.28830
H           2.34830        -0.78280         3.89200
H           3.70360        -0.52080         2.77360

