#Put Keywords Here, check Charge and Multiplicity.

 Isobutyl cinnamate

0  1
C          -0.22330        -1.05140         0.01020
C          -0.88540        -2.22370         0.22880
H          -0.38380        -2.90630         0.74550
C          -2.13250        -2.53680        -0.18210
H          -2.62200        -1.84180        -0.70060
C          -2.81600        -3.75220         0.04800
C          -4.13400        -3.91360        -0.46140
H          -4.58630        -3.16090        -0.98580
C          -4.86550        -5.10220        -0.26910
H          -5.81290        -5.19120        -0.64840
C          -4.29730        -6.16990         0.44360
H          -4.82510        -7.03410         0.58420
C          -3.00040        -6.04520         0.96260
H          -2.58360        -6.82210         1.48350
C          -2.27350        -4.85480         0.76760
H          -1.33730        -4.82460         1.16920
O           0.91370        -0.96730         0.46580
O          -0.72340        -0.08460        -0.61640
C          -0.15560         1.11470        -0.88180
H           0.13950         1.59310         0.05750
H           0.74840         0.94980        -1.47730
C          -1.08440         2.08570        -1.66500
H          -1.32500         1.61460        -2.62290
C          -0.35260         3.42290        -1.97920
H          -0.99840         4.08110        -2.56390
H           0.55190         3.23500        -2.56260
H          -0.06950         3.94190        -1.06010
C          -2.42130         2.34250        -0.91820
H          -3.04940         3.02530        -1.49400
H          -2.23970         2.77990         0.06660
H          -2.96730         1.40550        -0.79110

