#Put Keywords Here, check Charge and Multiplicity.

 Butyl formate

0  1
C           1.29620        -0.03690         0.00000
H           1.93830         0.72160         0.00000
O           1.73470        -1.17490         0.00000
O           0.07000         0.14170         0.00000
C          -0.56920         1.32240         0.00000
H          -0.28620         1.89200         0.89220
H          -0.28620         1.89200        -0.89220
C          -2.10660         1.12450         0.00000
H          -2.39260         0.55070        -0.88630
H          -2.39260         0.55070         0.88630
C          -2.86190         2.48190         0.00000
H          -2.56740         3.05290        -0.88430
H          -2.56740         3.05290         0.88430
C          -4.40240         2.35400         0.00000
H          -4.74630         1.82330         0.88910
H          -4.84530         3.35230         0.00000
H          -4.74630         1.82330        -0.88910

