#Put Keywords Here, check Charge and Multiplicity.

 Butyl hexanoate

0  1
C          -0.98430         1.51210        -0.99990
C          -1.39010         2.90140        -1.15080
H          -2.16270         2.97460        -1.92190
H          -1.83300         3.23740        -0.20980
C          -0.22490         3.85310        -1.53960
H           0.48750         3.89560        -0.71150
H           0.29360         3.45080        -2.41560
C          -0.70730         5.29490        -1.87220
H          -1.24750         5.70360        -1.01370
H          -1.39920         5.24860        -2.71780
C           0.45760         6.25450        -2.23610
H           1.00490         5.85160        -3.09230
H           1.14710         6.32110        -1.39110
C          -0.02000         7.68130        -2.59010
H           0.84050         8.30900        -2.83210
H          -0.54790         8.12770        -1.74500
H          -0.68710         7.66040        -3.45490
O          -1.46310         0.67940        -1.76460
O          -0.17910         1.18560        -0.09610
C           0.30290        -0.03600         0.21030
H          -0.52470        -0.71120         0.45190
H           0.84310        -0.44300        -0.65020
C           1.26570         0.02620         1.42420
H           2.09140         0.70240         1.19010
H           0.72750         0.43120         2.28460
C           1.83960        -1.36920         1.79650
H           2.37610        -1.78000         0.93620
H           1.01450        -2.04520         2.03960
C           2.80880        -1.33380         3.00070
H           3.17110        -2.34320         3.21030
H           2.29890        -0.95600         3.88900
H           3.66670        -0.69570         2.77980

