#Put Keywords Here, check Charge and Multiplicity.

 Isobutyl hexanoate

0  1
C          -0.19600        -1.09970         0.01250
C          -0.97940        -2.31160         0.18010
H          -0.37860        -3.07980         0.67870
H          -1.22930        -2.70120        -0.80710
C          -2.28170        -2.09760         1.00170
H          -2.95410        -1.43390         0.45210
H          -2.02410        -1.61380         1.94730
C          -3.02360        -3.42850         1.30790
H          -2.35460        -4.08480         1.87150
H          -3.26630        -3.92120         0.36320
C          -4.33140        -3.23160         2.12280
H          -4.10240        -2.73980         3.07190
H          -5.01420        -2.58680         1.56380
C          -5.05360        -4.56470         2.42460
H          -4.40990        -5.22300         3.01020
H          -5.32620        -5.07030         1.49670
H          -5.96460        -4.37560         2.99510
O           0.94210        -1.07130         0.46930
O          -0.68500        -0.12070        -0.59310
C          -0.12390         1.07620        -0.84750
H           0.15690         1.55970         0.09420
H           0.78400         0.91960        -1.43780
C          -1.06940         2.02280        -1.64340
H          -1.30680         1.53750        -2.59520
C          -0.35140         3.36560        -1.96880
H          -0.07110         3.88780        -1.04780
H           0.55420         3.18480        -2.55440
H          -1.00440         4.01830        -2.55280
C          -2.40930         2.28820        -0.90010
H          -2.96310         1.35770        -0.76240
H          -2.22430         2.73440         0.08070
H          -3.03820         2.96830        -1.47900

