#Put Keywords Here, check Charge and Multiplicity.

 Butyl lactate

0  1
C           2.02000        -0.73630         1.09070
C           2.19000        -0.21480        -0.25530
H           1.23560        -0.25030        -0.79070
O           2.58280         1.15480        -0.19710
H           2.60670         1.45470        -1.13110
C           3.21420        -1.01860        -1.08850
H           2.92470        -2.07020        -1.12500
H           3.24370        -0.63390        -2.11060
H           4.21570        -0.93950        -0.66040
O           0.91000        -1.13990         1.42160
O           2.98840        -0.76030         1.88170
C           3.02080        -1.18530         3.15890
H           2.29990        -0.61650         3.75350
H           2.75090        -2.24490         3.20620
C           4.43160        -0.98730         3.76130
H           5.15910        -1.52600         3.14810
H           4.68000         0.07690         3.72600
C           4.53390        -1.48400         5.22880
H           4.27770        -2.54680         5.27280
H           3.82000        -0.93440         5.84970
C           5.95100        -1.29420         5.81580
H           6.22540        -0.23670         5.80790
H           5.98020        -1.65520         6.84710
H           6.68080        -1.85650         5.22860

