#Put Keywords Here, check Charge and Multiplicity.

 Butyllevulinate

0  1
O          -0.33900         5.55220        -2.86110
C          -1.12790         5.13550        -2.02330
C          -0.77330         3.96610        -1.22720
H          -1.16340         4.09660        -0.21340
H           0.31670         3.89820        -1.14770
C          -2.36250         5.86840        -1.81460
H          -2.18350         6.66690        -1.09280
H          -2.71430         6.31220        -2.74890
H          -3.15230         5.21990        -1.42970
C          -1.32090         2.64070        -1.82430
H          -0.81310         2.42470        -2.76780
H          -2.38490         2.77210        -2.05110
C          -1.14750         1.50390        -0.93220
O          -2.15030         0.93920        -0.51070
O           0.00150         1.11450        -0.61900
C           0.35000         0.07440         0.16560
H          -0.06620         0.21470         1.16850
H          -0.05720        -0.85120        -0.25370
C           1.89000        -0.06780         0.27530
H           2.30290        -0.21380        -0.72760
H           2.30680         0.85920         0.68120
C           2.30380        -1.26070         1.18160
H           1.89250        -2.18490         0.76900
H           1.88300        -1.11730         2.17940
C           3.83290        -1.43100         1.32270
H           4.27550        -0.53780         1.76690
H           4.04980        -2.28430         1.96910
H           4.28840        -1.60950         0.34720

