#Put Keywords Here, check Charge and Multiplicity.

 Butyl phenylacetate

0  1
C          -1.18400         1.51910        -0.91950
C          -1.26730         2.63980        -1.84130
H          -2.30180         2.80880        -2.15930
H          -0.71080         2.37770        -2.74540
O          -2.21780         0.99480        -0.51950
O          -0.05850         1.09850        -0.57530
C          -0.74100         3.89910        -1.24480
C          -1.51090         4.63050        -0.30970
H          -2.44100         4.30190        -0.03890
C          -1.01780         5.82000         0.26050
H          -1.58650         6.34510         0.93030
C           0.26050         6.28950        -0.09110
H           0.62400         7.14690         0.33050
C           1.03570         5.58160        -1.02620
H           1.96190         5.93030        -1.28780
C           0.53690         4.39610        -1.59920
H           1.11620         3.89420        -2.27410
C           0.27590         0.04690         0.19830
H          -0.13030         0.17540         1.20670
H          -0.12850        -0.87810        -0.22580
C           1.81770        -0.07290         0.27850
H           2.20980        -0.21400        -0.73220
H           2.22770         0.86160         0.67080
C           2.28080        -1.25290         1.17600
H           1.88600        -2.18920         0.77180
H           1.87720        -1.11870         2.18330
C           3.81750        -1.36920         1.27730
H           4.23790        -0.45810         1.70820
H           4.08320        -2.21250         1.91830
H           4.25230        -1.53150         0.28890

