#Put Keywords Here, check Charge and Multiplicity.

 Isobutyl phenylacetate

0  1
C          -0.21750        -1.11790         0.06120
C          -1.03470        -2.31110         0.15330
H          -0.46900        -3.13160         0.61070
H          -1.27890        -2.63290        -0.86300
O           0.90840        -1.12860         0.54550
O          -0.67700        -0.12360        -0.53550
C          -2.27600        -2.08210         0.94530
C          -2.22840        -2.06030         2.36020
H          -1.34080        -2.20630         2.84860
C          -3.39450        -1.83810         3.11550
H          -3.34730        -1.82960         4.13660
C          -4.62390        -1.63030         2.46590
H          -5.46860        -1.46320         3.01410
C          -4.68950        -1.64650         1.06170
H          -5.58370        -1.49380         0.58960
C          -3.52340        -1.87470         0.30700
H          -3.58830        -1.87920        -0.71410
C          -0.10590         1.06350        -0.79990
H           0.16170         1.55850         0.13800
H           0.81230         0.89710        -1.37330
C          -1.06050         1.98420        -1.61830
H          -1.29820         1.47960        -2.56190
C          -0.36660         3.32830        -1.97510
H          -1.02950         3.96070        -2.57220
H           0.53880         3.14250        -2.55840
H          -0.09390         3.87010        -1.06680
C          -2.39950         2.23630        -0.87170
H          -3.04470         2.89880        -1.45300
H          -2.21320         2.69410         0.10210
H          -2.92930         1.29320        -0.72220

