#Put Keywords Here, check Charge and Multiplicity.

 Butyl stearate

0  1
C          -1.07260         1.33830        -0.95770
C          -1.48950         2.72050        -1.08810
H          -2.26810         2.79640        -1.85210
H          -1.92290         3.05080        -0.14040
C          -0.31400         3.65550        -1.48400
H           0.18530         3.24470        -2.36710
H           0.41140         3.68680        -0.66480
C          -0.77590         5.09960        -1.80980
H          -1.47040         5.06400        -2.65310
H          -1.30760         5.51230        -0.94780
C           0.40980         6.03620        -2.16990
H           0.95430         5.61630        -3.02030
H           1.09280         6.08690        -1.31800
C          -0.06280         7.47020        -2.52710
H          -0.74820         7.41630        -3.37790
H          -0.60810         7.88350        -1.67390
C           1.10360         8.43100        -2.88710
H           1.79300         8.48880        -2.03920
H           1.64980         8.02360        -3.74320
C           0.60840         9.86160        -3.23650
H          -0.07860         9.80310        -4.08570
H           0.05960        10.26770        -2.38170
C           1.77380        10.82110        -3.59250
H           2.31960        10.41260        -4.44710
H           2.45970        10.87480        -2.74280
C           1.29310        12.25560        -3.94160
H           0.74740        12.66740        -3.08780
H           0.60790        12.20590        -4.79280
C           2.47220        13.20240        -4.29420
H           3.15690        13.24890        -3.44200
H           3.01770        12.78740        -5.14710
C           2.00990        14.64230        -4.64610
H           1.32600        14.59690        -5.49860
H           1.46540        15.05840        -3.79350
C           3.19490        15.58350        -4.99770
H           3.87860        15.62820        -4.14520
H           3.73930        15.16680        -5.84990
C           2.73010        17.02220        -5.34920
H           2.04630        16.97590        -6.20140
H           2.18570        17.43740        -4.49650
C           3.90910        17.96830        -5.70170
H           4.59400        18.01810        -4.85040
H           4.45470        17.55650        -6.55550
C           3.43610        19.40420        -6.05170
H           2.75170        19.35790        -6.90400
H           2.89110        19.81950        -5.19880
C           4.61750        20.34680        -6.40340
H           5.16480        19.93970        -7.25820
H           5.30410        20.40100        -5.55390
C           4.15290        21.77740        -6.75270
H           5.01820        22.39860        -6.99160
H           3.62670        22.22310        -5.90630
H           3.48680        21.75990        -7.61760
O          -1.54000         0.50630        -1.72830
O          -0.24560         1.03270        -0.07160
C           0.29430        -0.16270         0.21410
H          -0.49870        -0.87530         0.46230
H           0.84790        -0.53780        -0.65270
C           1.25670        -0.03440         1.41850
H           2.06060         0.66250         1.16100
H           0.70550         0.38120         2.26760
C           1.86360        -1.40430         1.81920
H           2.41150        -1.81980         0.96860
H           1.05480        -2.09520         2.07480
C           2.82370        -1.30850         3.02290
H           3.21070        -2.30010         3.26410
H           2.29960        -0.91570         3.89680
H           3.66430        -0.65300         2.78590

