#Put Keywords Here, check Charge and Multiplicity.

 Butyl sulfide

0  1
S           1.96570        -0.87560        -1.95650
C           1.37290        -0.92070        -3.68100
H           2.02800        -0.29930        -4.29600
H           0.36990        -0.49270        -3.69240
C           1.35270        -2.36310        -4.24140
H           0.73430        -2.99880        -3.60130
H           2.37240        -2.75570        -4.21300
C           0.84200        -2.45910        -5.70610
H           1.48090        -1.85450        -6.35410
H           0.93390        -3.49840        -6.02860
C          -0.62760        -2.02430        -5.91380
H          -1.28820        -2.55620        -5.22610
H          -0.93560        -2.25210        -6.93600
H          -0.74540        -0.95040        -5.75740
C           1.84850         0.89690        -1.54180
H           0.80770         1.21420        -1.63850
H           2.45150         1.44250        -2.26850
C           2.34440         1.18190        -0.10370
H           1.71750         0.61880         0.59240
H           3.37140         0.82340         0.01010
C           2.27790         2.68230         0.29610
H           1.24620         3.03340         0.21940
H           2.57840         2.76670         1.34260
C           3.18370         3.61940        -0.53660
H           2.82830         3.69670        -1.56580
H           3.17400         4.62010        -0.10040
H           4.21280         3.25460        -0.54430

