#Put Keywords Here, check Charge and Multiplicity.

 Butylvalerate

0  1
C          -0.98170         1.54130        -0.98580
C          -1.40050         2.91430        -1.18890
H          -2.14140         2.95620        -1.99430
H          -1.88860         3.26580        -0.27610
C          -0.21700         3.85450        -1.54350
H           0.46370         3.89670        -0.68830
H           0.32920         3.44460        -2.39930
C          -0.68460         5.29380        -1.88930
H          -1.22870         5.71480        -1.03910
H          -1.36560         5.25630        -2.74410
C           0.48390         6.24020        -2.24340
H           1.02940         5.86430        -3.11160
H           0.09380         7.23140        -2.48160
H           1.17280         6.33040        -1.40100
O          -1.42740         0.68010        -1.73830
O          -0.18970         1.25940        -0.05620
C           0.31820         0.05270         0.25490
H          -0.50640        -0.62800         0.49510
H           0.86220        -0.33910        -0.61230
C           1.29110         0.09490         1.46120
H           2.13160         0.75350         1.22720
H           0.77380         0.49700         2.33620
C           1.82370        -1.32950         1.78350
H           2.33580        -1.72550         0.90210
H           0.97600        -1.98500         2.00220
C           2.80060        -1.40330         2.97610
H           3.11220        -2.44060         3.12210
H           2.31830        -1.05550         3.89020
H           3.68810        -0.79920         2.78480

