#Put Keywords Here, check Charge and Multiplicity.

 Butylisovalerate

0  1
C          -1.14830         1.57160        -0.85640
C          -1.34610         2.68100        -1.77570
H          -0.85680         3.56260        -1.34850
H          -2.41350         2.91340        -1.84540
C          -0.80330         2.43920        -3.22350
H           0.28770         2.35300        -3.17080
C          -1.33750         1.13270        -3.88200
H          -2.42670         1.14660        -3.94690
H          -0.93270         1.02390        -4.89080
H          -1.03330         0.25550        -3.30820
C          -1.11780         3.66130        -4.13380
H          -0.69960         4.57500        -3.70650
H          -0.67900         3.52050        -5.12400
H          -2.19640         3.79400        -4.24900
O          -2.13580         1.03800        -0.36030
O           0.00910         1.17670        -0.58910
C           0.36980         0.11970         0.16470
H          -0.04540         0.23430         1.17060
H          -0.04130        -0.79280        -0.27670
C           1.90750        -0.02950         0.27520
H           2.32190        -0.16400        -0.72790
H           2.32100         0.89130         0.69620
C           2.30120        -1.24010         1.17150
H           1.87490        -2.15240         0.74480
H           1.86830        -1.10400         2.16680
C           3.82280        -1.45690         1.33820
H           4.29180        -0.58520         1.79800
H           3.99380        -2.32060         1.98450
H           4.29510        -1.65030         0.37360

