#Put Keywords Here, check Charge and Multiplicity.

 Isobutyl propionate

0  1
C          -0.17600         0.16870         0.12560
C          -0.74180        -0.94020         0.87300
H          -0.20730        -1.03590         1.82080
H          -1.79130        -0.74010         1.11360
C          -0.66450        -2.28740         0.11690
H          -1.13720        -2.21160        -0.86450
H           0.37420        -2.59890        -0.01200
H          -1.18510        -3.05750         0.69180
O          -0.90260         1.10010        -0.20470
O           1.03970         0.15260        -0.14490
C           1.78270         1.04330        -0.82200
H           1.39060         1.16140        -1.83770
H           1.73110         2.01060        -0.31250
C           3.26970         0.59170        -0.89560
H           3.64480         0.48750         0.12900
C           4.13910         1.66910        -1.60140
H           5.18780         1.36270        -1.61820
H           4.07510         2.62040        -1.06690
H           3.80430         1.82470        -2.63030
C           3.41720        -0.78780        -1.59710
H           4.46870        -1.07880        -1.65030
H           3.01240        -0.74940        -2.61110
H           2.88370        -1.55760        -1.03640

