#Put Keywords Here, check Charge and Multiplicity.

 6884

0  1
Cl          1.81590         2.57030         0.70990
Cl         -0.60670        -1.67400        -1.73290
Cl          1.19490         2.44100        -4.59610
O           0.35640         0.06540         0.64250
C           0.51820         0.52720        -0.54030
C           1.21790         1.75550        -0.65540
C           0.08720        -0.12650        -1.72760
C           1.42570         2.34570        -1.91810
C           0.28170         0.48500        -2.98500
C           0.94970         1.71870        -3.08330
C          -0.75840        -0.28980         1.29680
H           1.92510         3.23810        -1.98990
H          -0.05270         0.02560        -3.83700
H          -0.47420        -0.64660         2.28770
H          -1.42490         0.56810         1.41160
H          -1.29990        -1.09280         0.80550

