#Put Keywords Here, check Charge and Multiplicity.

 Tributyrin

0  1
O           0.32120        -3.81880         0.09160
C           1.31690        -3.06290        -0.39640
H           2.26270        -3.59870        -0.26240
H           1.17630        -2.87470        -1.46850
C           1.34780        -1.70320         0.35950
H           1.39000        -1.92800         1.42780
O           0.18590        -1.10170         0.02580
C           2.62570        -0.91020        -0.04400
H           2.59880        -0.72850        -1.12210
H           3.50380        -1.52650         0.17670
O           2.73420         0.25090         0.61540
C          -0.11250        -4.90550        -0.32560
O          -0.23140        -5.13200        -1.52500
C          -0.51670        -5.90450         0.64330
H          -1.12640        -6.67400         0.15860
H          -1.13690        -5.42660         1.40900
C           0.71170        -6.58030         1.31000
H           1.31010        -7.08100         0.54190
H           1.33960        -5.82200         1.78830
C           0.30520        -7.62280         2.37450
H          -0.30610        -8.40620         1.92500
H          -0.26060        -7.14270         3.17400
H           1.19820        -8.07900         2.80310
C          -0.52730        -0.16960         0.44450
O          -1.57860        -0.05300        -0.16770
C          -0.24990         0.77330         1.52090
H           0.67250         1.29300         1.28610
H          -1.01800         1.55400         1.53530
C          -0.19560         0.15760         2.95030
H           0.05210        -0.90370         2.91980
H          -1.18580         0.23880         3.41040
C           0.83180         0.86410         3.86510
H           0.60940         1.92950         3.94110
H           0.79810         0.42660         4.86380
H           1.84120         0.74110         3.46780
C           3.64540         1.09190         0.52390
O           4.75750         0.82900         0.96240
C           3.39940         2.38100        -0.09490
H           2.37110         2.68860         0.10380
H           4.05810         3.13530         0.34720
C           3.63530         2.32690        -1.62800
H           4.68730         2.09910        -1.82160
H           3.02860         1.52810        -2.06480
C           3.27670         3.64220        -2.35370
H           3.51290         3.54990        -3.41610
H           2.21020         3.85030        -2.25130
H           3.84760         4.47720        -1.94270

