#Put Keywords Here, check Charge and Multiplicity.

 (+)-Camphene

0  1
C           3.56250         0.48350         0.06130
H           4.36330         1.12450         0.44040
C           2.14890         1.18840         0.01890
C           1.91300         2.09950        -1.23250
H           0.92310         2.55750        -1.19980
H           2.65290         2.90080        -1.26780
H           1.96720         1.54120        -2.16590
C           1.89810         2.05430         1.30230
H           0.89230         2.47800         1.29870
H           2.60980         2.88010         1.34770
H           2.00110         1.47610         2.21940
C           1.32110        -0.02210        -0.00400
C          -0.02070        -0.04680        -0.01050
H          -0.51370        -0.90610        -0.01130
H          -0.54230         0.79600        -0.01300
C           2.17190        -1.21360         0.01640
H           1.67900        -2.12960         0.35280
C           2.92630        -1.38030        -1.33280
H           3.42560        -2.35320        -1.38090
H           2.25750        -1.27800        -2.19150
C           3.96560        -0.23200        -1.26610
H           4.98110        -0.63140        -1.19670
H           3.92900         0.41840        -2.13680
C           3.30420        -0.75720         0.94690
H           2.97810        -0.53820         1.96690
H           4.14660        -1.45870         1.00170

