#Put Keywords Here, check Charge and Multiplicity.

 Carvacryl ethyl ether

0  1
O           1.93110         0.90100         0.63900
C           2.09090        -0.18460        -0.12880
H           1.12220        -0.52560        -0.50160
H           2.74240         0.03990        -0.97700
C           2.72930        -1.31260         0.69870
H           3.70870        -1.00170         1.06630
H           2.85400        -2.20220         0.07580
H           2.09310        -1.56390         1.54950
C           1.45120         2.06620         0.40340
C           1.01220         2.48090        -0.87840
H           1.08290         1.82830        -1.66120
C           0.48800         3.77550        -1.10780
C           0.06910         4.21080        -2.48020
H          -0.33940         5.22630        -2.43140
C           1.28680         4.28700        -3.44360
H           0.96520         4.63310        -4.42700
H           1.76200         3.31170        -3.56310
H           2.03280         4.99030        -3.06640
C          -1.06900         3.32110        -3.05370
H          -1.41140         3.72130        -4.00980
H          -0.72830         2.29710        -3.21620
H          -1.92170         3.29990        -2.37130
C           0.38280         4.65160        -0.00480
H           0.00180         5.59580        -0.11970
C           0.80760         4.25670         1.27490
H           0.71520         4.92120         2.04850
C           1.36110         2.97350         1.49160
C           1.84400         2.58370         2.84130
H           1.68820         3.36910         3.58350
H           2.91330         2.36640         2.79710
H           1.31670         1.68890         3.17810

