#Put Keywords Here, check Charge and Multiplicity.

 4-Carvomenthenol

0  1
C          -3.39740        -1.21650        -1.25620
H          -3.86630        -0.98860        -2.21700
C          -2.39070        -0.09020        -0.88360
H          -2.96690         0.78020        -0.55560
H          -1.85250         0.20540        -1.78740
C          -1.39950        -0.45530         0.13980
C          -0.61820         0.54130         0.67140
C           0.68130         0.63870         0.33370
H           1.25840         1.35240         0.71590
H           1.09640         0.00280        -0.30960
C          -1.22780         1.49240         1.59930
H          -1.88270         0.97410         2.30320
H          -1.81830         2.22230         1.04300
H          -0.49010         2.04270         2.18700
C          -1.22540        -1.73370         0.54950
H          -0.54610        -1.93560         1.25070
C          -1.97790        -2.87010         0.03640
H          -1.30640        -3.72690        -0.06810
H          -2.72340        -3.13190         0.79240
C          -2.69780        -2.60550        -1.32250
H          -3.47360        -3.36670        -1.45770
C          -1.72440        -2.74060        -2.53080
H          -1.38220        -3.77340        -2.62550
H          -2.22270        -2.46400        -3.46160
H          -0.84800        -2.10300        -2.40500
O          -4.44780        -1.24980        -0.28700
H          -3.99720        -1.35410         0.57990

