#Put Keywords Here, check Charge and Multiplicity.

 (-)-Carvyl acetate

0  1
C          -0.36630        -0.04310         0.20330
C          -0.82290        -1.18760         0.95380
H          -0.28730        -1.24060         1.90300
H          -1.89330        -1.13060         1.16720
H          -0.63520        -2.10150         0.38870
O          -1.17360         0.82100        -0.11160
O           0.84710         0.03040        -0.08180
C           1.59870         0.97290        -0.69610
H           2.60830         0.55200        -0.64550
C           1.26550         1.08650        -2.23040
H           0.23560         0.77270        -2.42150
H           1.88870         0.34670        -2.74830
C           1.52520         2.49100        -2.88560
H           2.07440         2.28400        -3.81320
C           0.28130         3.22620        -3.23840
C          -0.03050         3.46390        -4.52890
H          -0.85990         3.94710        -4.78450
H           0.55630         3.16010        -5.26780
C          -0.63000         3.70040        -2.19340
H          -0.96150         2.86690        -1.57990
H          -1.52840         4.18500        -2.58550
H          -0.13260         4.43010        -1.55580
C           2.52520         3.33550        -2.03320
H           2.56890         4.36080        -2.41740
H           3.53030         2.91000        -2.13160
C           2.19890         3.34300        -0.61810
H           2.33170         4.19760        -0.12330
C           1.74460         2.25010         0.03130
C           1.47620         2.31920         1.46800
H           2.01460         3.13340         1.95900
H           1.78010         1.39540         1.96420
H           0.40910         2.46980         1.63380

