#Put Keywords Here, check Charge and Multiplicity.

 (-)-Carvyl propionate

0  1
C           1.16880         1.93470        -1.97090
C           2.04200         3.05690        -2.26790
H           2.62600         2.85090        -3.17190
H           1.43080         3.94180        -2.46730
C           3.03130         3.37270        -1.12150
H           3.75560         4.11590        -1.46040
H           2.50090         3.77590        -0.25530
H           3.57390         2.47400        -0.82120
O           1.24430         0.92960        -2.66580
O           0.36850         2.02130        -1.01280
C          -0.48020         1.13900        -0.43340
H          -0.90820         1.71630         0.39190
C          -1.69800         0.78230        -1.36360
H          -1.42340         0.91670        -2.41320
H          -2.47770         1.53300        -1.17620
C          -2.32400        -0.64430        -1.15530
H          -3.40830        -0.48080        -1.12270
C          -2.03790        -1.59890        -2.26130
C          -3.03260        -2.03670        -3.06180
H          -2.86380        -2.66670        -3.81160
H          -3.97110        -1.74280        -2.92930
C          -0.67360        -2.07190        -2.51320
H          -0.01780        -1.22900        -2.70630
H          -0.59640        -2.73700        -3.37870
H          -0.29700        -2.62250        -1.65080
C          -1.98040        -1.20570         0.25860
H          -2.29410        -2.25160         0.33250
H          -2.54080        -0.64970         1.01510
C          -0.57190        -1.07970         0.59200
H          -0.15280        -1.83000         1.09240
C           0.15950         0.00710         0.26720
C           1.56440         0.08180         0.67060
H           1.79940        -0.57440         1.51150
H           1.82070         1.09560         0.98210
H           2.19990        -0.19650        -0.17200

