#Put Keywords Here, check Charge and Multiplicity.

 trans-(1R,9S)-8-Methylene-4,11,11-trimethylbicyclo[7.2.0]undec-4-ene

0  1
C          -3.45190        -1.27870        -0.79110
C          -2.30980        -2.00030         0.19450
H          -2.14700        -2.99110        -0.23930
H          -2.77860        -2.20680         1.16090
C          -0.81000        -1.28890         0.46360
H          -0.70550        -1.34860         1.55140
H          -0.13470        -2.06370         0.08390
C          -0.08830         0.08980         0.04510
C          -0.36380         1.34160        -0.58060
H           0.45380         1.90500        -0.66160
C          -1.51110         2.22160        -1.23150
H          -1.01830         3.16440        -1.49800
H          -2.14070         2.55190        -0.41230
C          -2.50290         2.02750        -2.56910
H          -3.22600         2.84590        -2.50340
H          -1.86780         2.26320        -3.42690
C          -3.32210         0.73500        -3.02470
C          -3.27870        -0.73160        -2.39550
C          -2.05980        -0.41110        -1.77790
H          -1.44330        -1.34480        -1.87970
H          -1.25170         0.07400        -2.35930
C          -3.13290         0.12020        -0.43530
C          -2.90990         0.57210         1.12200
H          -1.91760         0.64780         1.52540
H          -3.46760        -0.08480         1.79230
H          -3.27450         1.58050         1.34540
C          -4.59810         0.85120        -0.55240
H          -4.49950         1.93770        -0.59710
H          -5.22670         0.56100        -1.39680
H          -5.24610         0.62290         0.30200
C           1.34560        -0.04140         0.43650
H           1.90380        -0.45910        -0.40440
H           1.81390         0.90600         0.72040
H           1.50360        -0.69950         1.29650
C          -4.13780         0.88790        -4.08230
H          -4.67770         0.13280        -4.43290
H          -4.21960         1.76380        -4.54280
H          -4.45970        -1.64790        -0.56680
H          -3.19550        -1.53620        -3.13620

