#Put Keywords Here, check Charge and Multiplicity.

 Cinnamyl alcohol

0  1
C          -0.07010         0.27720         0.30140
H           0.62290         0.58340         1.08850
H          -0.74490         1.11170         0.10250
C           0.67430        -0.10350        -0.88380
H           1.57950        -0.47090        -0.72180
C           0.19840        -0.00100        -2.13990
H          -0.71760         0.38360        -2.22960
C           0.85600        -0.38100        -3.32720
C           0.19280        -0.19660        -4.57180
H          -0.75000         0.20510        -4.60850
C           0.80160        -0.55820        -5.79000
H           0.30770        -0.41490        -6.67420
C           2.09070        -1.11710        -5.79650
H           2.53530        -1.37820        -6.68020
C           2.76710        -1.31410        -4.58230
H           3.70510        -1.72150        -4.58200
C           2.15870        -0.95260        -3.36590
H           2.69460        -1.12100        -2.51360
O          -0.81930        -0.83950         0.77190
H          -1.24780        -0.53490         1.60190

