#Put Keywords Here, check Charge and Multiplicity.

 Cinnamyl butyrate

0  1
C          -0.13270        -0.06500         0.10770
C          -0.52860        -1.40710         0.49750
H          -1.57660        -1.57430         0.22730
H           0.07260        -2.12570        -0.06590
C          -0.35550        -1.67600         2.01710
H          -0.85180        -0.89050         2.59470
H           0.70920        -1.65470         2.26370
C          -0.93290        -3.04160         2.45580
H          -0.43750        -3.85510         1.92370
H          -0.77640        -3.18040         3.52640
H          -2.00460        -3.08740         2.25400
O          -0.97790         0.67870        -0.38080
O           1.05410         0.29990         0.26390
C           1.61200         1.48590        -0.03170
H           1.11300         2.28370         0.52820
H           1.47630         1.69830        -1.09630
C           3.03750         1.46960         0.24790
H           3.62100         1.11450        -0.47100
C           3.57530         1.91970         1.39740
H           2.92770         2.22900         2.08610
C           4.94010         2.01460         1.72220
C           5.31030         2.49490         3.00790
H           4.59750         2.74950         3.69740
C           6.66020         2.64820         3.37620
H           6.90140         3.00350         4.30460
C           7.67710         2.31760         2.46680
H           8.65850         2.42710         2.73200
C           7.34340         1.83590         1.19160
H           8.08350         1.59880         0.52760
C           5.99260         1.68510         0.82610
H           5.80500         1.33850        -0.11400

