#Put Keywords Here, check Charge and Multiplicity.

 Cinnamyl isobutyrate

0  1
C           1.99160        -0.75070         1.06080
C           2.13640        -0.22220        -0.29180
H           1.17450        -0.30690        -0.81160
C           3.16330        -1.04780        -1.11350
H           4.16900        -0.93720        -0.70200
H           2.89760        -2.10750        -1.10770
H           3.17540        -0.70830        -2.15220
C           2.50300         1.28700        -0.27570
H           3.49520         1.44240         0.15350
H           1.77590         1.85380         0.31060
H           2.50030         1.68630        -1.29300
O           0.89360        -1.16990         1.41400
O           2.97650        -0.76380         1.83460
C           3.05030        -1.21640         3.09870
H           2.79760        -2.28310         3.12630
H           2.31920        -0.68880         3.71930
C           4.37030        -0.97960         3.66260
H           4.52480        -0.08640         4.06590
C           5.35160        -1.90300         3.67220
H           5.13710        -2.77060         3.23150
C           6.63220        -1.78770         4.24340
C           7.54230        -2.87090         4.10580
H           7.28320        -3.71070         3.57900
C           8.82300        -2.83610         4.68790
H           9.45650        -3.63250         4.58270
C           9.23110        -1.70880         5.41870
H          10.15930        -1.68050         5.84500
C           8.35850        -0.61760         5.56150
H           8.65480         0.20480         6.09410
C           7.07720        -0.65570         4.97910
H           6.48150         0.16090         5.11430

