#Put Keywords Here, check Charge and Multiplicity.

 Cinnamyl cinnamate

0  1
C          -0.02360         0.02600        -0.02580
C          -0.21150        -1.31560        -0.19160
H          -1.15400        -1.61870        -0.23220
C           0.75560        -2.24830        -0.30480
H           1.69470        -1.91910        -0.26080
C           0.57010        -3.63570        -0.47890
C           1.71790        -4.46660        -0.58000
H           2.65820        -4.06440        -0.52910
C           1.60910        -5.86000        -0.75170
H           2.45160        -6.43520        -0.82060
C           0.34500        -6.46590        -0.82870
H           0.26600        -7.47810        -0.95300
C          -0.80900        -5.67340        -0.73420
H          -1.73160        -6.11310        -0.79040
C          -0.69790        -4.27990        -0.56230
H          -1.57070        -3.75600        -0.50050
O          -1.03500         0.71890         0.04910
O           1.11380         0.55950         0.04410
C           1.41470         1.86330         0.22870
H           0.98960         2.21220         1.17640
H           0.96310         2.46100        -0.57030
C           2.84860         2.09400         0.20390
H           3.25700         2.22940        -0.68800
C           3.61190         2.14730         1.31160
H           3.13810         1.98650         2.17210
C           4.99170         2.40990         1.39040
C           5.61680         2.37780         2.66620
H           5.07830         2.13820         3.50410
C           6.98290         2.67390         2.82740
H           7.40590         2.64710         3.75750
C           7.76570         3.00630         1.71110
H           8.75580         3.23000         1.82790
C           7.18250         3.02430         0.43400
H           7.75460         3.25450        -0.38160
C           5.81470         2.72740         0.27450
H           5.43760         2.75420        -0.67390

