#Put Keywords Here, check Charge and Multiplicity.

 Cinnamyl formate

0  1
C           1.34400        -0.02760        -0.01170
H           2.00100         0.71950         0.00520
O           1.75930        -1.17480         0.00340
O           0.12040         0.16950        -0.03800
C          -0.50480         1.35610        -0.04690
H          -0.22700         1.93350        -0.93730
H          -0.20800         1.94150         0.83180
C          -1.94040         1.14160         0.00700
H          -2.33380         1.04610         0.91160
C          -2.72560         1.06230        -1.08530
H          -2.25840         1.14120        -1.96030
C          -4.12240         0.88970        -1.12070
C          -4.77270         0.81320        -2.38200
H          -4.23730         0.86650        -3.25340
C          -6.16970         0.67170        -2.48450
H          -6.61700         0.62710        -3.40320
C          -6.95440         0.59560        -1.32330
H          -7.96860         0.49300        -1.39330
C          -6.34070         0.66270        -0.06320
H          -6.91040         0.61140         0.78410
C          -4.94440         0.80550         0.03490
H          -4.54900         0.85400         0.97330

