#Put Keywords Here, check Charge and Multiplicity.

 Cinnamyl isovalerate

0  1
C          -0.09160        -0.01950        -0.00080
C          -0.33330        -1.32710         0.58630
H           0.25410        -2.05560         0.02070
H          -1.38610        -1.59590         0.45760
C           0.03760        -1.45160         2.09980
H           1.12410        -1.35010         2.18560
C          -0.59920        -0.34630         2.98780
H          -1.68800        -0.37250         2.91900
H          -0.30980        -0.48510         4.03100
H          -0.25190         0.64010         2.67810
C          -0.33470        -2.85950         2.64590
H           0.16420        -3.63720         2.06600
H          -0.02000        -2.96130         3.68600
H          -1.41300        -3.02510         2.59450
O          -1.04180         0.60530        -0.46300
O           1.07250         0.43740        -0.01400
C           1.49230         1.65360        -0.40360
H           1.01100         2.42730         0.20600
H           1.20250         1.82740        -1.44540
C           2.94210         1.75110        -0.31920
H           3.45280         1.38930        -1.09050
C           3.59530         2.31140         0.71860
H           3.02310         2.62160         1.47170
C           4.98110         2.52140         0.84640
C           5.48220         3.10570         2.04190
H           4.85100         3.35350         2.80930
C           6.85350         3.37470         2.21200
H           7.18980         3.80330         3.07830
C           7.76300         3.05860         1.19020
H           8.76010         3.25210         1.31070
C           7.29850         2.47630         0.00030
H           7.96020         2.24960        -0.74610
C           5.92700         2.20960        -0.16800
H           5.64050         1.79290        -1.05290

