#Put Keywords Here, check Charge and Multiplicity.

 Citral

0  1
O          -3.65680        -4.01160         2.36120
C          -2.94150        -3.03160         2.21460
H          -2.27760        -2.84640         2.92580
C          -3.05500        -2.24610         1.11350
H          -3.66210        -2.59290         0.40400
C          -2.43570        -1.06200         0.88620
C          -2.68000        -0.36770        -0.38220
H          -3.51570         0.32320        -0.25800
H          -1.80310         0.20040        -0.69940
H          -2.91970        -1.05860        -1.19440
C          -1.52860        -0.41980         1.85210
H          -1.50350         0.66200         1.68300
H          -1.91220        -0.54350         2.86910
C          -0.07630        -0.96660         1.75430
H           0.35230        -0.67110         0.79520
H          -0.10580        -2.05520         1.75790
C           0.78070        -0.43690         2.81040
H           0.84230         0.55710         2.83520
C           1.48940        -1.13490         3.72950
C           2.29290        -0.42020         4.72430
H           3.33820        -0.41680         4.41030
H           1.97100         0.61570         4.85880
H           2.22560        -0.90110         5.70280
C           1.51090        -2.59660         3.75240
H           0.50060        -2.99260         3.87960
H           1.93290        -2.97550         2.81860
H           2.12170        -2.99520         4.56350

