#Put Keywords Here, check Charge and Multiplicity.

 11340

0  1
O          -0.00830         3.52630         0.29190
C          -0.50200         1.27790         0.22270
C          -1.93160         1.38050         0.10120
C           0.07380        -0.01500         0.06730
C          -2.69730         0.21280        -0.15490
C          -2.68560         2.65920         0.25740
C           0.34980         2.37500         0.50350
C          -0.70420        -1.15790        -0.16990
C          -2.09310        -1.04530        -0.28090
C           1.69340         2.24820         1.05780
H           1.08310        -0.15920         0.12140
H          -3.71560         0.25990        -0.24730
H          -2.48030         3.09300         1.23800
H          -3.76700         2.52830         0.18810
H          -2.40100         3.36640        -0.52410
H          -0.25910        -2.07300        -0.26270
H          -2.66460        -1.87660        -0.44980
H           1.66500         1.62420         1.95290
H           2.11850         3.21530         1.34070
H           2.36540         1.79650         0.32580

