#Put Keywords Here, check Charge and Multiplicity.

 Citral diethyl acetal

0  1
C          -0.88980         1.22480        -0.86050
H          -0.41650         0.82330        -1.76440
C          -1.27620         2.60680        -1.13400
H          -1.05030         2.93420        -2.04770
C          -1.89830         3.47470        -0.29380
C          -2.28030         3.13650         1.08700
H          -3.36710         3.08410         1.17410
H          -1.89290         2.18510         1.44650
H          -1.91460         3.90510         1.77170
C          -2.19570         4.85350        -0.74570
H          -1.84590         5.02890        -1.76880
H          -1.62980         5.54310        -0.11270
C          -3.70670         5.23720        -0.68120
H          -4.03890         5.18400         0.35960
H          -4.30970         4.50620        -1.22770
C          -4.00010         6.59180        -1.14090
H          -4.03750         7.28050        -0.42150
C          -4.22910         7.00010        -2.41150
C          -4.58990         8.39470        -2.68250
H          -5.56600         8.43450        -3.16970
H          -4.65250         9.01690        -1.78760
H          -3.85380         8.84960        -3.34610
C          -4.15790         6.13140        -3.58710
H          -3.45040         6.54680        -4.30750
H          -3.83390         5.11490        -3.37470
H          -5.14010         6.07400        -4.06020
O           0.08120         1.28520         0.20680
O          -2.12380         0.52780        -0.57790
C           0.83410         0.10370         0.52710
H           1.31910        -0.31560        -0.36040
H           0.19440        -0.65060         0.98480
C           1.90600         0.50360         1.55790
H           2.40140        -0.38690         1.95000
H           1.44010         1.04440         2.38680
H           2.65310         1.14730         1.08880
C          -2.16730        -0.90150        -0.73380
H          -1.72890        -1.38950         0.13650
H          -1.64650        -1.23470        -1.63750
C          -3.64780        -1.31530        -0.82470
H          -3.74120        -2.39660        -0.70810
H          -4.05440        -1.02780        -1.79660
H          -4.22540        -0.82190        -0.03770

