#Put Keywords Here, check Charge and Multiplicity.

 Citral dimethyl acetal

0  1
C          -0.30750         0.68820        -1.15050
H           0.00780         0.22040        -2.09020
C          -1.76550         0.70800        -1.14920
H          -2.19120         0.27400        -1.93890
C          -2.58530         1.23800        -0.20490
C          -4.03930         1.12330        -0.36970
H          -4.47620         2.10910        -0.52810
H          -4.33430         0.49180        -1.21090
H          -4.48320         0.68520         0.52550
C          -2.10890         1.90590         1.02180
H          -1.06570         1.66970         1.22810
H          -2.66660         1.50550         1.87210
C          -2.24510         3.45870         0.99960
H          -3.28630         3.75860         0.86890
H          -1.70870         3.83450         0.12290
C          -1.68860         4.10030         2.19020
H          -0.79730         4.52600         2.05630
C          -2.22790         4.15030         3.43280
C          -1.50460         4.80680         4.52590
H          -1.29260         4.08320         5.31460
H          -0.55210         5.24390         4.21810
H          -2.10930         5.61130         4.94870
C          -3.52570         3.57880         3.79450
H          -4.15200         4.33920         4.26450
H          -4.08730         3.18100         2.95230
H          -3.37910         2.76750         4.50860
O           0.09000        -0.15680        -0.04730
O           0.14510         2.06220        -1.11840
C           1.47680        -0.51360         0.06180
H           2.03950         0.29660         0.52430
H           1.55220        -1.38890         0.70720
H           1.91770        -0.76830        -0.90440
C           1.50690         2.33630        -1.49610
H           1.88830         1.64700        -2.25230
H           1.54710         3.34240        -1.91340
H           2.15290         2.30730        -0.61970

