#Put Keywords Here, check Charge and Multiplicity.

 Citronellyl butyrate

0  1
C          -0.17590        -0.15600         0.06750
C          -0.55330        -1.49480         0.48840
H          -1.60140        -1.68480         0.23450
H           0.04920        -2.21600        -0.06820
C          -0.36870        -1.72180         2.01350
H           0.69510        -1.68200         2.26730
H          -0.87900        -0.92610         2.56320
C          -0.93600        -3.07720         2.49020
H          -0.44520        -3.90220         1.97030
H          -0.76900        -3.19150         3.56290
H          -2.01090        -3.12760         2.30180
O          -1.03330         0.56470        -0.43330
O           1.00420         0.23720         0.21540
C           1.51000         1.46340        -0.02170
H           1.36180         1.71930        -1.07530
H           0.96430         2.17970         0.59740
C           3.02660         1.55990         0.30650
H           3.52230         0.74370        -0.22200
H           3.17210         1.39070         1.37760
C           3.69070         2.92620        -0.10100
H           3.52870         3.08160        -1.17320
C           3.03300         4.12370         0.65370
H           3.09090         3.96710         1.73320
H           3.53200         5.06560         0.41390
H           1.98710         4.24100         0.37110
C           5.23840         2.96580         0.14320
H           5.59950         3.98340        -0.04450
H           5.42470         2.75600         1.20020
C           6.10370         2.03020        -0.75370
H           6.03940         2.39220        -1.78730
H           5.72130         1.00970        -0.75960
C           7.50480         2.01150        -0.34490
H           8.11720         2.55740        -0.90750
C           8.03130         1.35390         0.71570
C           9.46220         1.46150         1.01620
H           9.92350         0.47320         0.96830
H          10.00670         2.11470         0.32950
H           9.59760         1.86220         2.02370
C           7.25590         0.50800         1.62920
H           7.37610         0.86110         2.65670
H           6.18640         0.48400         1.42160
H           7.61980        -0.52020         1.57340

