#Put Keywords Here, check Charge and Multiplicity.

 Citronellyl propionate

0  1
C          -0.25360         0.18030         0.26080
C          -0.60000        -0.45950         1.51730
H          -1.67470        -0.36610         1.70390
H          -0.37370        -1.52640         1.44590
C           0.15620         0.13080         2.73050
H          -0.00270         1.20990         2.80180
H           1.22690        -0.06780         2.64710
H          -0.20950        -0.33500         3.64840
O          -1.12660         0.76560        -0.37180
O           0.91860         0.10530        -0.16200
C           1.47160         0.69790        -1.23600
H           0.94190         0.39680        -2.14670
H           1.39360         1.78290        -1.11680
C           2.96110         0.29130        -1.36040
H           2.98960        -0.80010        -1.35240
H           3.49340         0.63910        -0.47070
C           3.69580         0.81090        -2.64350
H           3.17490         0.41710        -3.52170
C           3.66220         2.36480        -2.75490
H           4.11590         2.82210        -1.87310
H           4.20550         2.70050        -3.64100
H           2.63930         2.72870        -2.85410
C           5.17820         0.31250        -2.70280
H           5.70160         0.84590        -3.50160
H           5.67280         0.58200        -1.76710
C           5.36880        -1.20570        -2.98770
H           4.94050        -1.42330        -3.97150
H           4.82680        -1.82920        -2.27650
C           6.77760        -1.58290        -2.99210
H           7.18080        -1.69040        -3.89630
C           7.57420        -1.77480        -1.91240
C           8.98060        -2.14240        -2.09200
H           9.18270        -3.09220        -1.59220
H           9.27460        -2.25360        -3.13820
H           9.61990        -1.37520        -1.65050
C           7.13360        -1.64200        -0.52090
H           7.71090        -0.85370        -0.03110
H           6.07900        -1.39470        -0.40440
H           7.30460        -2.57990         0.01330

