#Put Keywords Here, check Charge and Multiplicity.

 Citronellyl valerate

0  1
C           1.56930         3.89350        -1.00770
C           0.78450         2.89080        -0.30790
H          -0.07560         3.36690         0.17300
H           0.39270         2.17960        -1.03860
C           1.59690         2.13190         0.77860
H           2.08210         2.85890         1.43590
H           2.37770         1.53660         0.29590
C           0.70800         1.19450         1.64170
H           0.21360         0.46750         0.99220
H          -0.06640         1.78540         2.13870
C           1.49910         0.42510         2.72470
H           2.25840        -0.20980         2.26550
H           0.81800        -0.20820         3.29700
H           1.98490         1.11990         3.41220
O           1.22210         5.06820        -0.93070
O           2.57860         3.54970        -1.66540
C           3.49240         4.33920        -2.26310
H           2.99810         4.96640        -3.01160
H           3.93610         4.98470        -1.49990
C           4.61340         3.51850        -2.96000
H           4.11950         2.77960        -3.59340
H           5.17350         2.97140        -2.19530
C           5.60660         4.37700        -3.82630
H           5.02370         4.93010        -4.56930
C           6.35610         5.42290        -2.94400
H           6.88130         4.92050        -2.12740
H           7.08710         5.98460        -3.52890
H           5.66510         6.15170        -2.52050
C           6.67010         3.52980        -4.60840
H           7.38430         4.21450        -5.07980
H           7.23730         2.93270        -3.88920
C           6.12610         2.62920        -5.75910
H           5.75410         3.28610        -6.55310
H           5.27740         2.02610        -5.43720
C           7.15390         1.75190        -6.31590
H           7.53340         2.04350        -7.18730
C           7.64650         0.61900        -5.75940
C           8.71360        -0.13430        -6.42500
H           8.36740        -1.14250        -6.65820
H           9.05230         0.32110        -7.35790
H           9.58250        -0.21070        -5.76790
C           7.18330         0.06220        -4.48520
H           8.02160        -0.05170        -3.79560
H           6.43510         0.66580        -3.97590
H           6.74210        -0.92060        -4.65250

