#Put Keywords Here, check Charge and Multiplicity.

 4-Isopropylbenzaldehyde

0  1
C           5.32770        -1.70340        -0.35380
H           5.66070        -0.79790        -0.58890
C           3.98310        -1.90220        -0.06170
C           3.47630        -3.17970         0.27700
H           4.09370        -3.99410         0.31500
C           2.11380        -3.36240         0.56930
H           1.79150        -4.30160         0.80880
C           1.20720        -2.27710         0.53440
C           1.71510        -1.00030         0.19570
H           1.09500        -0.18850         0.15860
C           3.07880        -0.81510        -0.09740
H           3.40410         0.12640        -0.33790
O           6.15060        -2.60820        -0.33740
C          -0.24750        -2.46710         0.84560
H          -0.76280        -1.50480         0.76010
C          -0.47160        -2.93720         2.30840
H          -1.54000        -3.00120         2.52680
H          -0.02670        -3.91900         2.48390
H          -0.02550        -2.22050         3.00140
C          -0.94120        -3.40930        -0.17520
H          -2.01110        -3.47480         0.03540
H          -0.52210        -4.41700        -0.13580
H          -0.81740        -3.01670        -1.18680

