#Put Keywords Here, check Charge and Multiplicity.

 Cyclohexaneethyl acetate

0  1
C          -1.90790         2.47300        -1.18370
H          -1.31900         1.66720        -1.62240
H          -2.94110         2.12370        -1.09830
C          -1.35230         2.82530         0.23300
H          -0.29800         3.09370         0.11720
C          -2.08080         4.08910         0.79700
H          -1.61170         4.39460         1.73710
H          -3.12900         3.85300         1.00970
C          -2.02650         5.29060        -0.18820
H          -0.98940         5.62340        -0.29780
H          -2.60290         6.12670         0.21830
C          -2.59120         4.90940        -1.57960
H          -3.65840         4.68600        -1.49030
H          -2.48150         5.75580        -2.26120
C          -1.85220         3.67840        -2.16000
H          -0.80820         3.94090        -2.36070
H          -2.31120         3.39760        -3.11070
C          -1.41110         1.62680         1.24010
H          -1.00070         1.95970         2.19890
H          -2.45460         1.34760         1.41230
C          -0.62510         0.35520         0.81580
H          -0.65770        -0.36780         1.63460
H          -1.11590        -0.11050        -0.04300
O           0.64490         0.67150         0.51500
C           1.55050        -0.07480         0.11280
O           1.85550        -1.08790         0.72960
C           2.27920         0.29170        -1.07560
H           1.65250         0.89810        -1.73440
H           2.59310        -0.59800        -1.62550
H           3.15990         0.86890        -0.79340

