#Put Keywords Here, check Charge and Multiplicity.

 6985

0  1
O           1.21410        -2.78280        -0.78600
C          -0.65040        -1.69680         1.13580
C          -0.02040        -1.03380         0.02790
C          -1.38180         0.48140         2.05870
C          -1.32800        -0.92700         2.11770
C          -0.09930         0.38470        -0.01860
C          -0.75640         1.12720         0.97480
C          -0.65560        -3.18090         1.30850
C           0.66430        -1.71250        -1.00640
C          -2.07500         1.28300         3.09730
C           0.80280        -1.21230        -2.37050
H          -1.79940        -1.39820         2.89420
H           0.33060         0.91690        -0.77900
H          -0.77740         2.14790         0.89970
H          -1.07230        -3.65270         0.41780
H          -1.25510        -3.50940         2.16010
H           0.35900        -3.54620         1.47810
H          -1.36560         1.95670         3.57980
H          -2.86590         1.87740         2.63770
H          -2.52550         0.65630         3.86920
H          -0.17180        -0.91790        -2.76430
H           1.22050        -1.96620        -3.04330
H           1.47120        -0.35060        -2.38850

