#Put Keywords Here, check Charge and Multiplicity.

 Cyclohexyl acetate

0  1
C          -0.32230         0.01680         0.23880
C          -0.72810        -1.15260         0.98050
H          -0.18080        -1.19870         1.92370
H          -1.79740        -1.13190         1.20000
H          -0.51010        -2.05090         0.40000
O          -1.15800         0.86320        -0.05400
O           0.88310         0.11060        -0.07410
C           1.58460         1.04280        -0.74700
H           2.61120         0.66370        -0.75690
C           1.13910         1.18070        -2.23530
H           1.22320         0.20810        -2.72990
H           0.09240         1.49050        -2.28600
C           1.99940         2.22340        -2.99500
H           3.02330         1.85070        -3.08840
H           1.59900         2.35720        -4.00340
C           2.00470         3.59240        -2.26360
H           0.99380         4.00990        -2.27870
H           2.65940         4.28690        -2.79350
C           2.47570         3.45590        -0.79100
H           3.52520         3.14950        -0.76590
H           2.39960         4.42900        -0.29870
C           1.61830         2.42090        -0.01760
H           2.02680         2.28780         0.98890
H           0.60460         2.81600         0.08420

