#Put Keywords Here, check Charge and Multiplicity.

 Cyclohexyl butyrate

0  1
C           2.02600         2.00110         1.06600
C           2.33590         2.71750         2.29090
H           2.30240         3.79700         2.10690
H           1.56500         2.49040         3.02990
C           3.73170         2.35120         2.86410
H           4.47910         2.42920         2.07250
H           3.72390         1.31820         3.22140
C           4.17340         3.26580         4.02890
H           3.45210         3.22010         4.84490
H           5.14440         2.94030         4.40350
H           4.26580         4.30030         3.69510
O           1.89860         2.65080         0.03410
O           1.90250         0.75140         1.09030
C           1.61760        -0.15370         0.12220
H           1.61360        -1.12890         0.62130
C           0.17990         0.04770        -0.45800
H          -0.55390        -0.17580         0.32210
H           0.03540         1.08860        -0.75350
C          -0.11890        -0.85460        -1.68230
H          -0.19130        -1.89820        -1.36050
H          -1.08520        -0.57190        -2.10900
C           0.98490        -0.73090        -2.76280
H           1.01780         0.29470        -3.14630
H           0.74890        -1.39750        -3.59620
C           2.36490        -1.11910        -2.17430
H           2.34050        -2.16830        -1.86320
H           3.13450        -1.02030        -2.94480
C           2.73930        -0.22470        -0.96490
H           3.65180        -0.62400        -0.51210
H           2.96920         0.77580        -1.33550

