#Put Keywords Here, check Charge and Multiplicity.

 Cyclohexyl isovalerate

0  1
C           1.97000         2.08140         1.06920
C           2.40400         2.73640         2.29440
H           1.66820         2.50110         3.06860
H           2.38780         3.82350         2.16200
C           3.82070         2.32070         2.80910
H           3.78480         1.26000         3.07780
C           4.94490         2.48940         1.74520
H           4.96740         3.51060         1.35880
H           5.92250         2.26080         2.17760
H           4.78620         1.80420         0.91030
C           4.17070         3.11030         4.10320
H           3.38480         2.98450         4.85060
H           5.10580         2.74850         4.53600
H           4.27690         4.17640         3.88880
O           1.74620         2.77470         0.08370
O           1.82180         0.83900         1.05310
C           1.55130        -0.04020         0.05950
H           1.56170        -1.01900         0.54890
C           0.13210         0.12770        -0.56670
H          -0.62300         0.03430         0.21870
H           0.03200         1.12020        -1.01160
C          -0.14730        -0.93740        -1.66270
H          -0.21660        -1.92500        -1.19760
H          -1.10880        -0.72510        -2.13710
C           0.96040        -0.95730        -2.74990
H           0.93040        -0.02200        -3.31680
H           0.76720        -1.77340        -3.45290
C           2.37100        -1.13480        -2.12820
H           2.45240        -2.13290        -1.68820
H           3.12290        -1.05610        -2.91800
C           2.65960        -0.06930        -1.03680
H           3.62250        -0.28820        -0.56780
H           2.73470         0.91040        -1.51480

