#Put Keywords Here, check Charge and Multiplicity.

 Dihydro-5-hexyl-2(3H)-furanone

0  1
O          -0.51320         0.72370        -0.50380
C           0.11850         0.26060         0.43900
C          -0.69490        -0.33580         1.45270
H          -0.44540         0.03950         2.44900
H          -0.59420        -1.42450         1.41730
C          -2.09390         0.11750         1.00660
H          -2.82500        -0.69340         1.08070
H          -2.43420         0.95700         1.62210
C          -1.84060         0.59180        -0.44680
H          -2.31240         1.56730        -0.60780
O           1.33930         0.27320         0.47000
C          -2.34040        -0.41130        -1.52790
H          -1.88210        -1.38740        -1.34960
H          -3.42320        -0.53150        -1.43170
C          -2.01680         0.04690        -2.97420
H          -2.59190         0.95210        -3.18680
H          -0.95490         0.29310        -3.04860
C          -2.34930        -1.03370        -4.03590
H          -1.76750        -1.93550        -3.82080
H          -3.41120        -1.28710        -3.97080
C          -2.02720        -0.55800        -5.47640
H          -2.60940         0.34180        -5.69340
H          -0.96530        -0.30200        -5.53930
C          -2.34870        -1.63850        -6.54140
H          -3.40630        -1.90710        -6.47770
H          -1.75610        -2.53480        -6.33960
C          -2.04650        -1.16020        -7.97770
H          -2.29380        -1.94890        -8.68930
H          -0.98720        -0.91560        -8.08150
H          -2.64170        -0.27580        -8.21610

