#Put Keywords Here, check Charge and Multiplicity.

 2-Decenal

0  1
C           1.28680         0.15110        -0.05790
H           1.30480        -0.66670         0.50710
C           0.12850         0.79640        -0.32780
H           0.17960         1.63150        -0.86710
C          -1.07510         0.37400         0.10100
H          -1.13140        -0.46870         0.63110
C          -2.32450         1.08390        -0.15500
H          -2.17360         1.94610        -0.81340
H          -3.01370         0.40510        -0.66430
C          -2.97930         1.56630         1.16720
H          -3.16920         0.69830         1.80630
H          -2.28640         2.23530         1.68780
C          -4.31840         2.31400         0.93830
H          -4.13200         3.18590         0.30510
H          -5.01000         1.64850         0.41380
C          -4.97250         2.78150         2.26560
H          -4.28100         3.44720         2.78950
H          -5.15630         1.91010         2.90040
C          -6.31100         3.52560         2.02300
H          -6.12110         4.39440         1.38670
H          -6.99640         2.85570         1.49660
C          -6.98530         4.00270         3.33460
H          -7.18290         3.13910         3.97520
H          -6.30830         4.67730         3.86540
C          -8.31900         4.74320         3.08700
H          -8.75120         5.05690         4.04020
H          -9.03120         4.08720         2.58210
H          -8.15390         5.63020         2.47190
O           2.34820         0.56920        -0.49830

