#Put Keywords Here, check Charge and Multiplicity.

 Decyl butyrate

0  1
C          -0.13010        -0.02350         0.21490
C          -0.55010        -0.23970         1.58750
H          -1.35170        -0.98500         1.62420
H           0.29140        -0.65000         2.14900
C          -1.05090         1.06210         2.27130
H          -1.81100         1.53160         1.63930
H          -0.22120         1.76640         2.38620
C          -1.66870         0.80310         3.66230
H          -1.99400         1.74740         4.10290
H          -0.93360         0.34130         4.32390
H          -2.53690         0.14430         3.57920
O          -0.73960        -0.59180        -0.68480
O           0.84170         0.72920        -0.01210
C           1.39230         1.05610        -1.19250
H           0.64040         1.53600        -1.82940
H           1.74830         0.14760        -1.68990
C           2.58930         2.02590        -1.01330
H           2.24700         2.94000        -0.51660
H           3.34690         1.55110        -0.38090
C           3.20690         2.38010        -2.39510
H           3.53030         1.45460        -2.87890
H           2.43080         2.83330        -3.01750
C           4.41340         3.34930        -2.34010
H           4.10390         4.28900        -1.87370
H           5.20700         2.90930        -1.72920
C           4.96070         3.63790        -3.76720
H           4.15980         4.07310        -4.37250
H           5.26050         2.69250        -4.22950
C           6.17240         4.60270        -3.77640
H           5.87350         5.55000        -3.31770
H           6.97520         4.16730        -3.17390
C           6.71440         4.88570        -5.20500
H           7.01820         3.94220        -5.67000
H           5.91710         5.32370        -5.81410
C           7.92780         5.85480        -5.18490
H           7.62020         6.79540        -4.71720
H           8.72130         5.41370        -4.57340
C           8.48890         6.15460        -6.60040
H           7.70090         6.59890        -7.21490
H           8.80140         5.21830        -7.07120
C           9.69490         7.11940        -6.56750
H          10.05060         7.29730        -7.58260
H          10.50940         6.68960        -5.98270
H           9.40550         8.07450        -6.12680

