#Put Keywords Here, check Charge and Multiplicity.

 Benzylether

0  1
O          -1.34370        -0.99440        -1.08100
C          -2.74020        -0.85280        -1.40960
H          -3.20290        -0.07780        -0.78900
H          -3.27550        -1.78910        -1.21790
C          -2.86940        -0.48830        -2.84180
C          -2.88810         0.86900        -3.24320
H          -2.78460         1.61680        -2.55190
C          -3.05840         1.21590        -4.59640
H          -3.08570         2.19950        -4.87220
C          -3.19670         0.20890        -5.56780
H          -3.32690         0.46090        -6.55130
C          -3.15850        -1.14430        -5.18800
H          -3.25870        -1.87650        -5.89390
C          -2.98830        -1.49040        -3.83460
H          -2.95860        -2.48120        -3.57910
C          -1.11170        -1.34960         0.29670
H          -1.60230        -2.29950         0.53510
H          -1.52970        -0.58820         0.96410
C           0.34840        -1.47000         0.52970
C           1.00860        -2.70970         0.35310
H           0.49090        -3.53350         0.03510
C           2.38470        -2.83540         0.61980
H           2.84720        -3.73930         0.50340
C           3.12150        -1.71860         1.05190
H           4.12110        -1.81120         1.25210
C           2.48490        -0.47520         1.21140
H           3.02020         0.33680         1.52510
C           1.10880        -0.35030         0.94450
H           0.66490         0.56450         1.06230

