#Put Keywords Here, check Charge and Multiplicity.

 Diethylsebacate

0  1
O           2.15440        12.80130        -3.40890
C           2.47350        11.94700        -4.22180
C           2.84230        10.62250        -3.74210
H           3.48670        10.11860        -4.46410
H           3.41780        10.72110        -2.81630
O           2.36200        12.27140        -5.41840
C           3.19620        12.10710        -6.45690
H           2.67650        12.47600        -7.34360
H           3.41940        11.05060        -6.62800
C           4.50680        12.91150        -6.30190
H           5.05920        12.56830        -5.42570
H           5.13430        12.78040        -7.18510
H           4.28340        13.97400        -6.18550
C           1.58390         9.75330        -3.47490
H           0.99690        10.21270        -2.67390
H           0.96600         9.72890        -4.37760
C           1.92730         8.29410        -3.07230
H           2.57220         8.30930        -2.18940
H           2.47820         7.81930        -3.88920
C           0.66290         7.44560        -2.76000
H           0.10690         7.92320        -1.94790
H           0.02040         7.42250        -3.64530
C           1.00470         5.98880        -2.34750
H           1.55090         5.50660        -3.16350
H           1.65400         6.01130        -1.46800
C          -0.25720         5.14350        -2.01580
H          -0.80320         5.62220        -1.19770
H          -0.90940         5.11930        -2.89390
C           0.08660         3.68460        -1.60460
H           0.75630         3.70800        -0.73800
H           0.61730         3.20250        -2.43250
C          -1.17800         2.84660        -1.25890
H          -1.65130         3.25480        -0.36000
H          -1.89800         2.94580        -2.07950
C          -0.87670         1.44370        -1.02850
O          -0.14330         1.13790        -0.06680
C           0.28300        -0.06660         0.33790
H           0.85670        -0.55380        -0.45550
H          -0.56720        -0.70180         0.60110
O          -1.35500         0.59610        -1.77610
C           1.18270         0.10190         1.57400
H           1.51710        -0.87690         1.91850
H           0.63050         0.58950         2.37900
H           2.05680         0.70620         1.32560

