#Put Keywords Here, check Charge and Multiplicity.

 Dihydrocarveol

0  1
C           3.37110        -0.07440         1.76340
H           3.90680        -1.00320         1.55060
C           1.84250        -0.32810         1.63450
H           1.56670        -1.15810         2.29110
H           1.31970         0.56410         1.98740
C           1.41170        -0.66000         0.16990
H           1.96260        -1.57120        -0.09290
C          -0.04550        -0.91540         0.04260
C          -0.49170        -2.12620        -0.34680
H          -1.46300        -2.31830        -0.43780
H           0.13650        -2.86640        -0.55570
C          -1.01660         0.14430         0.33950
H          -0.91570         0.47250         1.37360
H          -2.05350        -0.17390         0.20680
H          -0.85940         0.99730        -0.31990
C           1.92590         0.43300        -0.82170
H           1.41190         1.38080        -0.64350
H           1.71120         0.12510        -1.84860
C           3.45260         0.68190        -0.68510
H           3.99590        -0.20910        -1.01210
H           3.73110         1.50010        -1.35370
C           3.84530         1.04100         0.77980
H           3.32570         1.96640         1.04580
C           5.36380         1.33320         0.90100
H           5.64660         2.14590         0.22720
H           5.61210         1.64130         1.91930
H           5.95130         0.44730         0.64890
O           3.66030         0.27480         3.11700
H           3.16060         1.10340         3.28190

