#Put Keywords Here, check Charge and Multiplicity.

 m-Dimethoxybenzene

0  1
C           0.68190         0.78700        -0.36920
C           0.09000         0.48710        -1.62230
H          -0.73980        -0.10700        -1.65650
C           0.63150         0.99900        -2.82870
C           1.77020         1.82860        -2.76330
H           2.16880         2.22740        -3.61870
C           2.37360         2.12210        -1.52820
H           3.20510         2.71740        -1.49400
C           1.83540         1.59810        -0.34020
H           2.29400         1.81270         0.55050
O           0.16910         0.77000        -3.99730
C          -0.91070         0.09970        -4.40470
H          -0.94070         0.13780        -5.49260
H          -0.86790        -0.94560        -4.09590
H          -1.81950         0.55980        -4.01300
O           0.25350         0.37790         0.76250
C          -0.74900        -0.44240         1.08400
H          -0.78150        -0.52540         2.16940
H          -1.70680        -0.05220         0.73760
H          -0.58420        -1.43510         0.66160

