#Put Keywords Here, check Charge and Multiplicity.

 p-Dimethoxybenzene

0  1
C           0.50130        -0.28070        -0.47700
C           1.80660        -0.74680        -0.18440
H           2.11030        -0.86120         0.78390
C           2.70650        -1.06110        -1.22000
H           3.64740        -1.38480        -0.97940
C           2.32700        -0.93700        -2.57190
C           1.02000        -0.47560        -2.86450
H           0.71030        -0.37810        -3.83280
C           0.12590        -0.14500        -1.82900
H          -0.80840         0.19690        -2.06960
O           3.20670        -1.25900        -3.44370
C           3.16240        -1.26810        -4.78060
H           4.12040        -1.62760        -5.15720
H           2.37830        -1.93690        -5.13900
H           2.99270        -0.26270        -5.17280
O          -0.38230         0.03020         0.39480
C          -0.35110         0.00290         1.73180
H          -1.32000         0.33130         2.10860
H          -0.16480        -1.00880         2.09560
H           0.41640         0.67740         2.11870

