#Put Keywords Here, check Charge and Multiplicity.

 2,6-Dimethyl-5-heptenal

0  1
C          -0.12700         0.65550         2.45650
H           0.81680         0.55680         2.74310
C          -0.97050        -0.53310         2.36720
H          -0.86060        -1.06950         3.31610
C          -0.52890        -1.50360         1.21900
H          -0.69610        -1.01140         0.25600
H          -1.17600        -2.38800         1.25210
C           0.95070        -1.99250         1.27920
H           1.17470        -2.34820         2.28630
H           1.61050        -1.14120         1.09180
C           1.25350        -2.98880         0.25420
H           1.18650        -2.64420        -0.67840
C           1.61450        -4.28390         0.42430
C           1.94060        -5.10250        -0.74540
H           2.71500        -5.83860        -0.51450
H           2.31680        -4.50490        -1.58020
H           1.04530        -5.63460        -1.06970
O          -0.52020         1.78910         2.21660
C           1.71090        -4.91970         1.73860
H           1.70250        -6.01130         1.66270
H           0.86320        -4.64870         2.36850
H           2.63940        -4.62030         2.23160
C          -2.48500        -0.18590         2.24400
H          -2.79660         0.44970         3.07820
H          -3.09090        -1.09510         2.26840
H          -2.69040         0.34340         1.30860

