#Put Keywords Here, check Charge and Multiplicity.

 6998928

0  1
O          -0.05210         0.06610         2.99780
C          -0.00330         1.79030         1.27580
C          -0.49210         1.39210         2.69860
C          -0.51180         0.85150         0.14440
C           0.01190         2.33970         3.82700
C          -0.04180         1.32030        -1.26020
C          -0.48730         3.79920         3.72100
C          -0.54950         0.42480        -2.41220
H           1.09050         1.79610         1.26780
H          -0.34710         2.80240         1.04950
H          -1.58540         1.38060         2.71300
H          -0.14170        -0.16340         0.32330
H          -1.60490         0.82460         0.16810
H          -0.32790         1.94000         4.78650
H           1.10570         2.34030         3.84140
H           1.05200         1.33070        -1.28610
H          -0.39440         2.33980        -1.43840
H          -0.19780         4.35440         4.61410
H          -0.04480         4.29600         2.85570
H          -1.57530         3.82770         3.63030
H          -0.17660         0.80980        -3.36370
H          -0.19270        -0.59840        -2.28770
H          -1.64040         0.42170        -2.44410
H           0.92630         0.10440         2.94370

