#Put Keywords Here, check Charge and Multiplicity.

 a,a-Dimethylphenethyl acetate

0  1
C          -0.20960         0.08680         0.18610
C          -0.62780        -1.08270         0.92030
H          -0.07540        -1.14400         1.86000
H          -1.69640        -1.05220         1.14840
H          -0.42520        -1.98060         0.33280
O          -1.03210         0.95300        -0.08420
O           0.99290         0.16580        -0.14720
C           1.72480         1.09220        -0.81230
C           3.19190         0.53120        -0.84530
H           3.54020         0.40790         0.18480
H           3.85750         1.27560        -1.29040
C           3.38560        -0.76130        -1.56780
C           3.36330        -1.99660        -0.87560
H           3.19520        -2.02330         0.13390
C           3.58100        -3.20900        -1.55970
H           3.56750        -4.09460        -1.04840
C           3.82340        -3.20290        -2.94460
H           3.99400        -4.08230        -3.44050
C           3.83840        -1.98550        -3.64770
H           4.00550        -1.97960        -4.65630
C           3.62710        -0.77510        -2.96330
H           3.65480         0.10010        -3.49250
C           1.73650         2.44910        -0.03220
H           2.40110         3.16990        -0.51510
H           2.07880         2.29910         0.99450
H           0.73990         2.89300         0.00840
C           1.17080         1.32250        -2.25730
H           1.87700         1.90320        -2.85520
H           0.99240         0.36740        -2.75510
H           0.22420         1.86660        -2.23700

