#Put Keywords Here, check Charge and Multiplicity.

 2-Dodecenal

0  1
C           1.31120         0.14410        -0.06640
H           1.33240        -0.67230         0.50000
C           0.15090         0.78970        -0.33370
H           0.19610         1.63100        -0.86470
C          -1.05300         0.35610         0.08480
H          -1.11040        -0.49270         0.60350
C          -2.30210         1.06060        -0.16990
H          -2.14300         1.92080        -0.82740
H          -2.98790         0.37600        -0.67770
C          -2.95710         1.55080         1.14920
H          -3.14730         0.68670         1.79300
H          -2.26340         2.22090         1.66710
C          -4.29640         2.30040         0.91750
H          -4.11470         3.17370         0.28510
H          -4.99210         1.63820         0.39430
C          -4.94950         2.76710         2.24610
H          -4.25760         3.43270         2.77070
H          -5.13290         1.89530         2.88120
C          -6.28880         3.51210         2.01100
H          -6.10360         4.38310         1.37500
H          -6.97850         2.84540         1.48480
C          -6.94580         3.98040         3.33610
H          -7.12710         3.10760         3.96980
H          -6.25290         4.64500         3.86000
C          -8.28660         4.72550         3.09720
H          -8.09870         5.59450         2.46080
H          -8.97290         4.05670         2.57070
C          -8.95760         5.20090         4.41240
H          -8.27830         5.87320         4.94290
H          -9.15190         4.33650         5.05270
C         -10.29270         5.94280         4.17300
H         -10.71770         6.25270         5.12920
H         -11.00870         5.28940         3.67040
H         -10.13170         6.83210         3.56020
O           2.37600         0.56250        -0.50020

