#Put Keywords Here, check Charge and Multiplicity.

 26447

0  1
O           1.18400         0.15250        -0.37730
C          -0.69210        -1.24500        -0.01070
C          -1.78150        -1.25930        -1.13810
C          -1.88800         1.32070        -1.08280
C          -2.70440        -0.00710        -1.10040
C           0.25710        -2.50900        -0.02000
C          -0.78630         1.27930         0.02030
C          -0.00720         0.05540        -0.10530
C          -2.81320         2.55550        -0.91580
C           1.24930        -2.51160         1.18650
C          -0.51260        -3.86630        -0.01790
H          -1.22090        -1.26620         0.94740
H          -2.42680        -2.13260        -1.03400
H          -1.29610        -1.31940        -2.11780
H          -1.38590         1.42130        -2.05260
H          -3.36040        -0.02300        -1.97550
H          -3.33310        -0.06250        -0.20800
H           0.85400        -2.48250        -0.93730
H          -1.23910         1.30930         1.01500
H          -0.14220         2.15830        -0.07750
H          -3.54580         2.59190        -1.72470
H          -2.22820         3.47690        -0.94490
H          -3.34730         2.51230         0.03540
H           1.90040        -1.63790         1.17640
H           1.89880        -3.39050         1.15520
H           0.70260        -2.51880         2.13160
H          -1.07060        -4.00150        -0.94490
H           0.18130        -4.70720         0.05830
H          -1.20610        -3.90830         0.82530

