#Put Keywords Here, check Charge and Multiplicity.

 Ethyl acrylate

0  1
C          -0.80930         1.59250        -1.03920
C          -1.07170         2.90650        -1.27440
H          -1.65200         3.13750        -2.05050
C          -0.61250         3.93400        -0.54440
H          -0.02800         3.79810         0.24640
H          -0.85570         4.86460        -0.78990
O          -1.30340         0.76430        -1.79800
O          -0.08830         1.23690        -0.08160
C           0.28290         0.00810         0.31150
H           0.83970        -0.49430        -0.48670
H          -0.59780        -0.59430         0.55840
C           1.18200         0.11270         1.55810
H           1.48200        -0.88830         1.87500
H           0.64310         0.59490         2.37740
H           2.07910         0.69480         1.33330

