#Put Keywords Here, check Charge and Multiplicity.

 2-Ethylbutyl acetate

0  1
C          -0.17640         0.18160         0.15970
C          -0.72340        -0.94660         0.87230
H          -0.21770        -1.05780         1.83220
H          -1.79330        -0.82490         1.05770
H          -0.57640        -1.85540         0.28790
O          -0.91060         1.11440        -0.14820
O           1.03670         0.16330        -0.12990
C           1.78990         1.09100        -0.74470
H           1.79280         1.99770        -0.13100
H           1.35200         1.34170        -1.71510
C           3.25940         0.60280        -0.94160
H           3.66530         0.45360         0.06630
C           3.35390        -0.78970        -1.65570
H           2.78960        -1.52430        -1.07480
H           4.39140        -1.12970        -1.64280
C           2.84460        -0.84840        -3.11600
H           2.95870        -1.86350        -3.50190
H           3.41630        -0.17500        -3.75590
H           1.78800        -0.58250        -3.16790
C           4.11950         1.73270        -1.60260
H           3.72500         1.97500        -2.59240
H           4.02900         2.63540        -0.99140
C           5.63260         1.43310        -1.73180
H           6.15780         2.33010        -2.06780
H           5.81310         0.64240        -2.46280
H           6.04510         1.13140        -0.76670

