#Put Keywords Here, check Charge and Multiplicity.

 Ethyl isobutyrate

0  1
C          -0.82860         1.56930        -1.06780
C          -1.09870         2.98380        -1.30550
H          -1.74470         3.07250        -2.18590
C           0.20130         3.77080        -1.62770
H           0.87040         3.79070        -0.76420
H           0.72700         3.31560        -2.47080
H          -0.04580         4.79950        -1.89820
C          -1.87080         3.62810        -0.12150
H          -1.25770         3.64380         0.78260
H          -2.78960         3.07360         0.08510
H          -2.14430         4.65500        -0.37260
O          -1.31780         0.73030        -1.81890
O          -0.10610         1.23750        -0.10620
C           0.27730         0.01890         0.30490
H           0.83550        -0.48700        -0.48850
H          -0.59920        -0.58650         0.55450
C           1.17550         0.14400         1.55240
H           1.48460        -0.85080         1.88220
H           0.63470         0.63160         2.36620
H           2.06750         0.73140         1.32460

