#Put Keywords Here, check Charge and Multiplicity.

 2-Ethylbutyric acid

0  1
C           1.60550        -2.29730         1.15310
C           2.56280        -1.98570         0.09190
H           2.63370        -0.89540        -0.00280
C           2.01490        -2.52790        -1.27070
H           1.00290        -2.13520        -1.41830
H           1.94320        -3.61980        -1.23450
C           2.83170        -2.13610        -2.52410
H           2.29110        -2.44420        -3.42140
H           3.80160        -2.63430        -2.52880
H           2.98110        -1.05540        -2.56540
O           1.01900        -1.41000         1.75550
O           1.36390        -3.45800         1.46900
H           0.78580        -3.64210         2.10680
C           3.99420        -2.51060         0.44150
H           3.98140        -3.60120         0.50640
H           4.69040        -2.23780        -0.35520
C           4.58220        -1.94600         1.75790
H           5.59230        -2.33330         1.90250
H           3.97460        -2.24390         2.61430
H           4.62800        -0.85590         1.71680

