#Put Keywords Here, check Charge and Multiplicity.

 Ethyl cyclohexanepropionate

0  1
C          -0.25000         5.24970        -1.99510
H          -0.88240         5.20540        -2.88860
C          -1.05320         6.00710        -0.88730
H          -2.00730         5.50850        -0.71220
H          -0.49050         5.99490         0.04970
C          -1.37280         7.47540        -1.27130
H          -2.06610         7.48270        -2.11690
H          -1.86720         7.96960        -0.43100
C          -0.09630         8.26460        -1.65050
H           0.53550         8.38020        -0.76600
H          -0.37790         9.26390        -1.99330
C           0.69970         7.54160        -2.76630
H           0.11640         7.55640        -3.69160
H           1.62970         8.08760        -2.95180
C           1.02520         6.06930        -2.38650
H           1.51810         5.59900        -3.24240
H           1.73780         6.07130        -1.55620
C          -0.78160         1.46190        -1.08210
C          -1.11760         2.85890        -1.30610
H          -1.81890         2.94090        -2.14190
H          -1.63410         3.21360        -0.41160
C           0.10910         3.77470        -1.60500
H           0.76620         3.78200        -0.73230
H           0.67040         3.33050        -2.43240
O          -1.23660         0.61430        -1.84300
O          -0.06640         1.15330        -0.10630
C           0.31190        -0.06300         0.33070
H           0.87720        -0.58010        -0.44800
H          -0.56590        -0.66210         0.58700
C           1.20220         0.06660         1.58160
H           1.51520        -0.92290         1.91940
H           0.64960         0.55390         2.38820
H           2.09220         0.65550         1.34990

