#Put Keywords Here, check Charge and Multiplicity.

 Ethyl formate

0  1
C           1.26320        -0.00790         0.00000
H           1.91270         0.74440         0.00000
O           1.68850        -1.15170         0.00000
O           0.03770         0.17540         0.00000
C          -0.62050         1.34480         0.00000
H          -0.36160         1.92530        -0.89100
H          -0.36160         1.92530         0.89100
C          -2.14090         1.08820         0.00000
H          -2.68340         2.03680         0.00000
H          -2.43010         0.52200         0.88780
H          -2.43010         0.52200        -0.88780

