#Put Keywords Here, check Charge and Multiplicity.

 Ethyl 3-(2-furyl)propanoate

0  1
C          -0.81750         1.54890        -1.04740
C          -1.10210         2.95350        -1.29680
H          -1.80920         3.03690        -2.12920
H          -1.59070         3.37220        -0.41140
C           0.15800         3.79670        -1.64240
H           0.68640         3.34370        -2.48600
H           0.84690         3.81770        -0.79360
O          -1.30860         0.70310        -1.78890
O          -0.09640         1.22770        -0.07950
O          -0.46350         5.59040        -3.28220
C          -0.20400         5.18190        -2.01450
C          -0.36130         6.26760        -1.15390
H          -0.23110         6.26820        -0.14110
C          -0.73600         7.35380        -1.92950
H          -0.93690         8.29950        -1.59960
C          -0.78750         6.90570        -3.24260
H          -1.03310         7.47740        -4.05240
C           0.28540         0.00210         0.32340
H           0.84720        -0.49910        -0.47050
H          -0.58910        -0.60760         0.57120
C           1.18370         0.09910         1.56830
H           1.48820        -0.90140         1.88220
H           0.64120         0.57400         2.38790
H           2.07790         0.68180         1.34000

