#Put Keywords Here, check Charge and Multiplicity.

 Ethyl laurate

0  1
C          -0.87940         1.45010        -1.02800
C          -1.17710         2.85270        -1.25940
H          -1.89800         2.94440        -2.07750
H          -1.64860         3.26060        -0.35970
C           0.08700         3.69050        -1.60720
H           0.62600         3.20870        -2.42740
H           0.74950         3.71440        -0.73580
C          -0.24960         5.14920        -2.01970
H          -0.90030         5.13060        -2.89880
H          -0.79450         5.63210        -1.20390
C           1.01210         5.99070        -2.35010
H           1.56060         5.50900        -3.16500
H           1.66480         6.02030        -1.47310
C           0.65940         7.44250        -2.76900
H           0.01180         7.41390        -3.64930
H           0.11040         7.92730        -1.95760
C           1.92130         8.28160        -3.09800
H           2.57120         8.30850        -2.21860
H           2.46880         7.79870        -3.91250
C           1.57680         9.73500        -3.51430
H           1.02890        10.22000        -2.70100
H           0.92850         9.71120        -4.39520
C           2.84310        10.57200        -3.84040
H           3.49160        10.59500        -2.95920
H           3.39130        10.08670        -4.65380
C           2.49830        12.02680        -4.25630
H           1.84820        11.99890        -5.13570
H           1.94850        12.50700        -3.44150
C           3.75790        12.87130        -4.58410
H           4.31030        12.39760        -5.40000
H           4.41050        12.90520        -3.70760
C           3.41330        14.31920        -4.99800
H           4.33160        14.86770        -5.21690
H           2.88590        14.83210        -4.19130
H           2.78530        14.32240        -5.89100
O          -1.35250         0.60100        -1.77730
O          -0.14740         1.13980        -0.06800
C           0.28140        -0.06550         0.33820
H           0.85680        -0.55090        -0.45380
H          -0.56560        -0.70500         0.59860
C           1.18290         0.09830         1.57420
H           1.52030        -0.87920         1.92400
H           0.63190         0.58740         2.38070
H           2.05850         0.70000         1.32170

