#Put Keywords Here, check Charge and Multiplicity.

 Ethyl 2-methylbutyrate

0  1
C          -0.80390         1.43300        -1.13230
C          -1.10150         2.83900        -1.43040
H          -1.62690         3.23510        -0.55480
C          -2.05270         3.03860        -2.66210
H          -2.96790         2.45940        -2.50120
H          -1.56700         2.65280        -3.56380
C          -2.48440         4.49780        -2.94110
H          -1.63860         5.08120        -3.30820
H          -3.26110         4.51070        -3.70760
H          -2.87870         4.96510        -2.03660
O          -1.21190         0.53030        -1.85670
O          -0.11840         1.17590        -0.11810
C           0.22470         3.64260        -1.59240
H           0.77100         3.30400        -2.47490
H           0.86690         3.52280        -0.71780
H           0.02450         4.70920        -1.69480
C           0.31190         0.00000         0.36720
H           0.90320        -0.52910        -0.38600
H          -0.54040        -0.62600         0.64450
C           1.18960         0.22740         1.61460
H           1.53980        -0.73430         1.99530
H           0.61560         0.72700         2.39760
H           2.05720         0.84230         1.36540

