#Put Keywords Here, check Charge and Multiplicity.

 Ethyl palmitate

0  1
C          -0.89570         1.41160        -1.02790
C          -1.19050         2.81700        -1.23750
H          -1.91780         2.91530        -2.04770
H          -1.65760         3.21590        -0.33090
C           0.07270         3.65540        -1.59310
H           0.60370         3.17260        -2.41820
H           0.74580         3.68320        -0.73150
C          -0.26480         5.11380        -2.00620
H          -0.91830         5.09760        -2.88320
H          -0.80610         5.59620        -1.18860
C           0.99870         5.95250        -2.33650
H           1.54960         5.47320        -3.15090
H           1.65200         5.98490        -1.45970
C           0.64370         7.40200        -2.75470
H          -0.00300         7.37410        -3.63590
H           0.09530         7.88930        -1.94370
C           1.90320         8.23940        -3.08370
H           2.55540         8.27140        -2.20610
H           2.45190         7.76080        -3.90010
C           1.54340         9.68670        -3.49780
H           0.89560         9.66280        -4.37940
H           0.99600        10.17240        -2.68430
C           2.81180        10.51170        -3.82050
H           3.35920        10.02570        -4.63430
H           3.45960        10.53440        -2.93850
C           2.46700        11.96210        -4.23510
H           1.91980        12.44740        -3.42110
H           1.81940        11.93890        -5.11680
C           3.74260        12.77970        -4.55580
H           4.38740        12.79540        -3.67190
H           4.28710        12.28710        -5.36700
C           3.41050        14.23380        -4.97220
H           2.76320        14.21160        -5.85360
H           2.86360        14.71980        -4.15920
C           4.68310        15.05860        -5.29490
H           5.22900        14.56870        -6.10650
H           5.32930        15.07680        -4.41250
C           4.34700        16.51490        -5.71180
H           3.69770        16.49090        -6.59180
H           3.79800        16.99860        -4.89880
C           5.61330        17.35110        -6.03760
H           6.26520        17.38070        -5.16030
H           6.16510        16.87340        -6.85170
C           5.28230        18.80250        -6.45330
H           6.20570        19.34250        -6.66990
H           4.75720        19.32100        -5.64840
H           4.65660        18.81120        -7.34810
O          -1.37240         0.57030        -1.78400
O          -0.15970         1.10130        -0.07540
C           0.28010        -0.09700         0.33680
H           0.86820        -0.58750        -0.44410
H          -0.55590        -0.74450         0.61540
C           1.17600         0.11310         1.56880
H           1.53070        -0.85040         1.93870
H           0.61050         0.60950         2.36130
H           2.03920         0.72710         1.30090

