#Put Keywords Here, check Charge and Multiplicity.

 Ethyl 3-phenylglycidate

0  1
C          -0.72020         1.52280        -1.19020
C          -1.01580         2.92140        -1.39010
H          -0.20610         3.57270        -1.72250
C          -2.15090         3.61580        -0.65020
H          -2.07020         4.70000        -0.55650
O          -2.27830         3.19250        -2.01730
O          -1.11840         0.70680        -2.01250
O          -0.03120         1.20660        -0.20360
C          -2.98040         2.88550         0.33680
C          -2.41660         2.46000         1.56120
H          -1.44300         2.67670         1.78460
C          -3.18270         1.72870         2.48820
H          -2.76240         1.41420         3.36710
C          -4.52680         1.42840         2.20350
H          -5.08010         0.88320         2.86760
C          -5.11140         1.88280         1.00740
H          -6.09400         1.67630         0.81030
C          -4.34500         2.61800         0.08240
H          -4.78690         2.95100        -0.77830
C           0.30430        -0.00950         0.25640
H           0.86590        -0.56330        -0.50170
H          -0.59380        -0.57810         0.51780
C           1.18550         0.14390         1.51070
H           1.47260        -0.83820         1.89130
H           0.64320         0.68060         2.29100
H           2.09060         0.70280         1.26750

