#Put Keywords Here, check Charge and Multiplicity.

 15654

0  1
S          -0.54910        -2.68390        -0.31830
N           1.85130        -3.35350        -0.09830
C           1.84850        -2.00050         0.06810
C           0.58520        -1.37240        -0.01860
C           3.12230        -1.29270         0.31490
C           0.28580        -0.02380         0.10590
C           0.66110        -3.94690        -0.31890
C          -0.92810         0.50370        -0.09690
H           3.30510        -0.55890        -0.47100
H           3.96040        -1.99330         0.33280
H           3.08840        -0.77940         1.27630
H           1.01670         0.60070         0.35950
H           0.49100        -4.94220        -0.45870
H          -1.06920         1.48000         0.01220
H          -1.70470        -0.05330        -0.36060

