#Put Keywords Here, check Charge and Multiplicity.

 Ethyl 3-phenylpropionate

0  1
C          -0.82350         1.54740        -1.03560
C          -1.10350         2.94650        -1.31080
H          -1.80650         3.02600        -2.14810
H          -1.58970         3.37710        -0.43290
C           0.16140         3.78290        -1.64450
H           0.72040         3.30100        -2.45370
H           0.81540         3.79700        -0.76710
O          -1.31980         0.69780        -1.76760
O          -0.11140         1.22960        -0.05630
C          -0.19440         5.17730        -2.03680
C          -0.45360         5.49900        -3.39140
H          -0.37440         4.78060        -4.11570
C          -0.83290         6.80280        -3.76220
H          -1.02710         7.01970        -4.74210
C          -0.95260         7.80510        -2.78450
H          -1.23150         8.75120        -3.05370
C          -0.69700         7.50330        -1.43560
H          -0.79230         8.23070        -0.72400
C          -0.31820         6.19870        -1.06400
H          -0.14000         5.99540        -0.07710
C           0.28370         0.00290         0.33630
H           0.84280        -0.48010        -0.47130
H          -0.58790        -0.61610         0.57370
C           1.19310         0.07390         1.58130
H           1.49420        -0.93160         1.88720
H           0.67120         0.54460         2.41500
H           2.09260         0.64970         1.36200

