#Put Keywords Here, check Charge and Multiplicity.

 Ethyl pyruvate

0  1
C          -0.88090         1.47430        -1.03130
C          -1.03370         2.78490        -1.37250
O          -0.38800         3.64020        -0.77790
C          -1.92010         3.23100        -2.43350
H          -1.61700         2.78000        -3.37990
H          -1.89210         4.31660        -2.55310
H          -2.94950         2.93960        -2.21300
O          -1.47080         0.60230        -1.66430
O          -0.13300         1.17140        -0.07590
C           0.28190        -0.03070         0.35490
H           0.84070        -0.54050        -0.43450
H          -0.57290        -0.64980         0.63930
C           1.19760         0.15260         1.57930
H           1.54250        -0.81970         1.93720
H           0.65410         0.65160         2.38470
H           2.06660         0.75830         1.31300

