#Put Keywords Here, check Charge and Multiplicity.

 Ethyl salicylate

0  1
C          -0.83670         1.51010        -1.06850
C          -1.13780         2.85380        -1.35600
C          -0.65010         3.93800        -0.56620
O           0.09480         3.75680         0.43670
H           0.38840         4.43720         0.91230
C          -0.98530         5.27170        -0.88430
H          -0.64190         6.04110        -0.30480
C          -1.78920         5.55740        -1.99860
H          -2.01940         6.52700        -2.22990
C          -2.27380         4.50880        -2.79490
H          -2.85760         4.71400        -3.60890
C          -1.95780         3.17720        -2.47380
H          -2.34080         2.44560        -3.08020
O          -1.28090         0.60940        -1.77360
O          -0.11170         1.21020        -0.09370
C           0.30470         0.01240         0.34830
H           0.88010        -0.48900        -0.43610
H          -0.56020        -0.60210         0.61700
C           1.20190         0.16500         1.59080
H           1.52280        -0.82030         1.93670
H           0.65170         0.65720         2.39550
H           2.08730         0.75650         1.34740

