#Put Keywords Here, check Charge and Multiplicity.

 Ethyl isovalerate

0  1
C          -0.87730         1.54240        -1.01490
C          -1.10860         2.94720        -1.30570
H          -1.56490         3.39210        -0.41780
H          -1.83650         3.04080        -2.11900
C           0.16630         3.77140        -1.68230
H           0.82440         3.80070        -0.80530
C           0.97640         3.15100        -2.85670
H           0.35480         3.07010        -3.75120
H           1.84640         3.76900        -3.08990
H           1.33990         2.15640        -2.59300
C          -0.21700         5.24030        -2.02230
H          -0.75090         5.70050        -1.18700
H           0.67860         5.83520        -2.22180
H          -0.85960         5.27150        -2.90740
O          -1.43640         0.69790        -1.70740
O          -0.12590         1.22930        -0.06700
C           0.27200         0.00730         0.32800
H           0.82930        -0.48690        -0.47500
H          -0.59450        -0.61180         0.58510
C           1.17720         0.12110         1.56700
H           1.49860        -0.87230         1.88460
H           0.63470         0.59140         2.38860
H           2.06060         0.71970         1.33960

