#Put Keywords Here, check Charge and Multiplicity.

 Eugenyl acetate

0  1
C          -0.27410        -0.08660         0.18570
C          -0.59740        -1.17220         1.08390
H          -0.15660        -0.98910         2.06620
H          -1.67670        -1.28880         1.20500
H          -0.19820        -2.10860         0.68970
O          -1.17570         0.60130        -0.27670
O           0.92160         0.04630        -0.13320
C           1.62400         0.92460        -0.75080
C           2.89280         0.49560        -1.20990
O           3.21300        -0.72360        -0.96930
C           4.27650        -1.45950        -1.30470
H           4.15300        -2.45590        -0.87900
H           4.35440        -1.55340        -2.38910
H           5.19300        -1.02560        -0.90330
C           3.72900         1.40480        -1.90300
H           4.64440         1.08800        -2.23200
C           3.33030         2.73780        -2.16220
C           4.27000         3.62860        -2.91740
H           4.64380         3.08300        -3.78740
H           5.13400         3.82770        -2.27540
C           3.71220         4.86570        -3.44420
H           2.94590         4.79950        -4.07500
C           4.16610         6.08650        -3.13710
H           4.93340         6.21390        -2.52170
H           3.73690         6.88970        -3.53080
C           2.06450         3.15190        -1.67590
H           1.73780         4.11190        -1.81370
C           1.22410         2.26110        -0.98270
H           0.32400         2.60580        -0.64220

