#Put Keywords Here, check Charge and Multiplicity.

 Methyl eugenol

0  1
C           1.41880        -0.31650        -0.11420
H           1.45700        -1.40350        -0.03450
H           2.06370         0.11230         0.65610
H           1.78110        -0.02360        -1.10260
O           0.15420         0.07290         0.06950
C          -0.38750         1.23280         0.07160
C          -1.75810         1.30290         0.41710
O          -2.34970         0.20390         0.71980
C          -3.59370        -0.05190         1.14440
H          -3.69830        -1.12700         1.29130
H          -3.79300         0.44850         2.09610
H          -4.32830         0.26580         0.40190
C          -2.40060         2.56470         0.42830
H          -3.39380         2.61580         0.66560
C          -1.71040         3.76180         0.12710
C          -2.48820         5.03660         0.16580
H          -3.05310         5.07020         1.10100
H          -3.22160         4.98860        -0.64450
C          -1.73380         6.27900         0.11300
H          -1.09210         6.46610         0.85100
C          -1.86220         7.19150        -0.85780
H          -2.49280         7.06100        -1.61390
H          -1.32050         8.02170        -0.83000
C          -0.33940         3.67110        -0.20830
H           0.20250         4.50810        -0.43780
C           0.31020         2.42570        -0.24220
H           1.29940         2.40090        -0.49910

