#Put Keywords Here, check Charge and Multiplicity.

 Methyl isoeugenol

0  1
O          -5.96090        -1.18490        -0.43940
C          -4.68650        -1.27270        -0.54130
C          -4.14600        -2.50460        -0.98270
O          -4.96400        -3.44400        -1.28970
C          -4.76140        -4.71360        -1.67150
H          -5.72990        -5.19070        -1.83000
H          -4.19560        -4.75680        -2.60470
H          -4.22780        -5.26850        -0.89620
C          -2.73960        -2.65650        -1.05350
H          -2.36140        -3.54890        -1.37790
C          -1.84380        -1.62770        -0.67230
C          -0.46600        -1.89730        -0.67920
H          -0.19120        -2.82810        -0.90440
C           0.53460        -1.04680        -0.38630
H           0.34560        -0.09580        -0.18100
C           1.92280        -1.45920        -0.36020
H           2.29360        -1.60480        -1.37500
H           2.53050        -0.69400         0.12270
H           2.04420        -2.38800         0.20140
C          -2.41260        -0.39630        -0.26470
H          -1.83050         0.39410         0.01240
C          -3.80450        -0.21900        -0.20750
H          -4.16750         0.68550         0.10110
C          -6.74950        -0.17640        -0.04910
H          -7.77830        -0.53460        -0.01090
H          -6.47120         0.17420         0.94730
H          -6.69490         0.65120        -0.75930

