#Put Keywords Here, check Charge and Multiplicity.

 Farnesol

0  1
C           0.09880         0.21760         0.33450
H           0.81570         0.19020         1.16020
H          -0.42350         1.17550         0.38820
C           0.79230         0.05350        -0.93220
H           1.71760        -0.30850        -0.85320
C           0.30690         0.30540        -2.17330
C           1.14710         0.01150        -3.34060
H           1.40090         0.93370        -3.86590
H           2.08680        -0.48700        -3.08890
H           0.61110        -0.64660        -4.02700
C          -1.04410         0.84020        -2.43960
H          -1.64490         0.88950        -1.53110
H          -1.57110         0.14020        -3.09540
C          -1.04220         2.24830        -3.11340
H          -0.30290         2.90180        -2.64590
H          -0.72240         2.13520        -4.15320
C          -2.36280         2.87260        -3.11450
H          -2.89480         2.71330        -3.94110
C          -2.93440         3.59960        -2.12230
C          -4.30720         4.09150        -2.29170
H          -4.32040         5.18170        -2.32270
H          -4.79050         3.73710        -3.20460
H          -4.92580         3.76020        -1.45630
C          -2.27190         3.91410        -0.84120
H          -1.33030         3.38090        -0.72830
H          -2.90360         3.55070        -0.02610
C          -2.00680         5.43580        -0.63010
H          -2.96070         5.92810        -0.42230
H          -1.63030         5.89460        -1.54680
C          -1.10980         5.70720         0.49040
H          -1.56490         5.88990         1.35660
C           0.24490         5.71580         0.47540
C           0.99600         5.99640         1.70350
H           1.60440         6.89390         1.57000
H           0.35980         6.15860         2.57740
H           1.65920         5.15970         1.93580
C           1.05930         5.45810        -0.71360
H           1.75400         4.63900        -0.52020
H           0.49040         5.18260        -1.59640
H           1.63560         6.35190        -0.95970
O          -0.82010        -0.85580         0.51510
H          -1.19280        -0.71530         1.41070

