#Put Keywords Here, check Charge and Multiplicity.

 1715061

0  1
O           3.14030         1.37560        -3.08080
C           2.11110         2.34890        -0.08920
C           2.22540         1.06620        -0.98270
C           3.20840         3.40860        -0.43980
C           2.11470         1.95120         1.41510
C           2.10980         1.28380        -2.42390
C           3.07900         4.78330         0.26160
C           0.83980         1.33700        -3.14150
C           0.19210         2.74020        -3.17820
H           1.13680         2.80450        -0.27400
H           1.45590         0.35090        -0.68480
H           3.18340         0.58090        -0.77190
H           3.16970         3.61350        -1.51150
H           4.19820         3.00080        -0.22050
H           1.34910         1.19770         1.61260
H           3.08290         1.54600         1.71540
H           1.88700         2.81360         2.04240
H           3.23270         4.69300         1.33760
H           3.83910         5.46090        -0.13400
H           2.09640         5.22170         0.07550
H           0.12890         0.63290        -2.70370
H           0.99420         1.01800        -4.17850
H          -0.69450         2.71790        -3.81650
H           0.89110         3.47220        -3.58610
H          -0.12120         3.05830        -2.18380

