#Put Keywords Here, check Charge and Multiplicity.

 Fenchyl alcohol

0  1
C           2.13110         1.43050        -0.08930
H           1.35510         2.19840        -0.15240
C           1.52290        -0.01780         0.02380
C          -0.04220         0.00970         0.08510
H          -0.47690         0.62990        -0.69730
H          -0.38010         0.42600         1.03640
H          -0.44760        -0.99900        -0.01030
C           1.98860        -0.81810         1.29270
H           3.07270        -0.87310         1.37300
H           1.61700        -0.34600         2.20410
H           1.60690        -1.84070         1.26420
C           2.12480        -0.66290        -1.28250
H           2.14760        -1.75670        -1.25530
C           1.49310        -0.13450        -2.60340
H           1.87980        -0.70070        -3.45940
H           0.40390        -0.20570        -2.62560
C           1.99790         1.32900        -2.64630
H           2.52760         1.51890        -3.58420
H           1.17760         2.04700        -2.56790
C           2.96100         1.39980        -1.41800
C           4.02570         2.52680        -1.55010
H           3.54120         3.50440        -1.54970
H           4.73630         2.49310        -0.72360
H           4.58840         2.42130        -2.47820
C           3.53180        -0.03140        -1.39070
H           4.07440        -0.30870        -2.30340
H           4.18520        -0.22940        -0.53580
O           2.94260         1.78750         1.03110
H           2.34200         1.72790         1.80360

