#Put Keywords Here, check Charge and Multiplicity.

 Furfuryl acetate

0  1
C          -0.11640         0.17710         0.12610
C          -0.62800        -0.95940         0.85690
H          -0.13450        -1.03140         1.82840
H          -1.70520        -0.87490         1.02160
H          -0.43540        -1.87610         0.29590
O          -0.88830         1.05600        -0.24270
O           1.10580         0.21590        -0.11420
C           1.81230         1.09970        -0.83450
H           1.74890         2.10070        -0.39620
H           1.43090         1.14010        -1.85830
C           3.21580         0.66230        -0.87080
C           4.19420         0.92880         0.08480
H           4.07930         1.47400         0.94150
C           5.36210         0.31960        -0.34750
H           6.26640         0.32950         0.12380
C           5.06080        -0.30540        -1.55020
H           5.71740        -0.83990        -2.12070
O           3.75950        -0.09190        -1.85860

