#Put Keywords Here, check Charge and Multiplicity.

 Geranyl benzoate

0  1
C          -0.90660        -1.10840         0.00400
C          -0.12060         0.05530         0.00170
C          -0.71460         1.34890        -0.00210
H          -1.73160         1.46350        -0.00460
C           0.06470         2.51970        -0.00010
H          -0.38840         3.43740         0.00280
C           1.46510         2.42780         0.00110
H           2.03340         3.27750         0.00410
C           2.08130         1.16520         0.00050
H           3.10200         1.09780         0.00290
C           1.29850        -0.00580        -0.00080
H           1.78530        -0.90620        -0.00450
O          -2.12960        -1.00310        -0.04640
O          -0.39300        -2.25550         0.06700
C          -0.97380        -3.45090        -0.16420
H          -1.86720        -3.57520         0.45240
H          -1.31370        -3.48020        -1.20330
C          -0.06540        -4.56430         0.06660
H           0.27940        -4.99480        -0.76320
C           0.33050        -5.06550         1.26300
C          -0.12760        -4.51560         2.54700
H           0.72320        -4.15050         3.12210
H          -0.82170        -3.67940         2.46100
H          -0.63470        -5.29260         3.12230
C           1.22240        -6.24740         1.29900
H           1.44210        -6.61120         0.28970
H           0.68660        -7.06270         1.79340
C           2.57920        -6.03310         2.03640
H           2.37580        -5.91380         3.10350
H           3.05300        -5.10220         1.71630
C           3.49800        -7.15970         1.88610
H           3.48500        -7.81360         2.63720
C           4.33640        -7.40650         0.85070
C           5.19930        -8.59400         0.86680
H           6.24930        -8.29370         0.83740
H           5.06590        -9.22340         1.75080
H           4.99810        -9.21860        -0.00680
C           4.46280        -6.54960        -0.33120
H           4.29290        -7.13610        -1.23710
H           3.76000        -5.71880        -0.35650
H           5.47070        -6.13020        -0.37140

