#Put Keywords Here, check Charge and Multiplicity.

 Geranyl formate

0  1
C           1.31550         0.00560        -0.00090
H           1.97570         0.74480        -0.06150
O           1.71370        -1.14660         0.00650
O           0.09910         0.21840         0.06640
C          -0.54120         1.37710        -0.13700
H          -0.16260         2.16870         0.51690
H          -0.37620         1.71120        -1.16680
C          -1.96420         1.16750         0.07150
H          -2.49520         1.07910        -0.76640
C          -2.61390         1.06000         1.25580
C          -1.93720         1.16410         2.55650
H          -2.06710         0.24330         3.12470
H          -0.86330         1.33270         2.49650
H          -2.36520         1.99140         3.12610
C          -4.08150         0.87150         1.26810
H          -4.49050         0.84750         0.25240
H          -4.52890         1.74630         1.74720
C          -4.57580        -0.40370         2.01570
H          -4.37730        -0.27560         3.08350
H          -4.00840        -1.28390         1.70450
C          -6.00940        -0.63800         1.87220
H          -6.56320        -0.29390         2.62420
C          -6.64780        -1.25120         0.84710
C          -8.10660        -1.40670         0.87890
H          -8.36750        -2.46720         0.85690
H          -8.57360        -0.97280         1.76760
H          -8.55330        -0.92290         0.00740
C          -5.97620        -1.79710        -0.33590
H          -6.40400        -1.36070        -1.24130
H          -4.90340        -1.61090        -0.36980
H          -6.12170        -2.87870        -0.37310

