#Put Keywords Here, check Charge and Multiplicity.

 g - Heptalactone

0  1
C          -0.29980         3.32550         1.34840
C           0.57930         4.06220         2.20060
H           0.31470         3.90100         3.24880
H           0.55720         5.12830         1.96420
C           1.93270         3.42570         1.84570
H           2.52980         4.12510         1.25110
H           2.49840         3.14790         2.73850
C           1.51660         2.17660         1.02870
H           1.60840         1.28140         1.65550
C           2.32480         1.96250        -0.28420
H           2.18910         2.82850        -0.93750
H           3.38700         1.89200        -0.03280
C           1.90580         0.67330        -1.04310
H           0.82650         0.68670        -1.21800
H           2.13570        -0.19740        -0.42410
C           2.60630         0.50070        -2.40920
H           2.36840         1.33590        -3.07070
H           2.26220        -0.42170        -2.88110
H           3.68870         0.44320        -2.28300
O          -1.48400         3.59220         1.20630
O           0.22180         2.37350         0.78400

