#Put Keywords Here, check Charge and Multiplicity.

 6566014

0  1
O           2.71760         0.45400        -3.14650
C           3.02850         1.76710        -0.12390
C           1.96510         1.10190        -1.06360
C           2.69710         1.60470         1.39840
C           4.46120         1.22570        -0.40350
C           2.16140         1.32840        -2.49400
C           1.38850         2.28480         1.86800
C           1.66630         2.50520        -3.20170
C           2.64650         3.70040        -3.20680
H           3.04900         2.84070        -0.32170
H           0.96760         1.45970        -0.80670
H           1.96060         0.02490        -0.86260
H           2.65770         0.54200         1.65980
H           3.50760         2.05410         1.98300
H           4.75630         1.42090        -1.43580
H           4.50510         0.14810        -0.22620
H           5.19450         1.71140         0.24590
H           0.51550         1.76110         1.47580
H           1.33490         2.26270         2.95930
H           1.35720         3.32640         1.54320
H           0.71350         2.82610        -2.77370
H           1.46660         2.23890        -4.24590
H           2.25860         4.48590        -3.85840
H           3.62700         3.39580        -3.57910
H           2.75960         4.12330        -2.20940

