#Put Keywords Here, check Charge and Multiplicity.

 4-Heptanone

0  1
C           3.39660        -3.12170         1.29940
H           3.38110        -3.63580         2.26260
H           3.18580        -3.85100         0.51540
H           4.39500        -2.70940         1.14300
C           2.33730        -1.99740         1.28720
H           2.54960        -1.31310         2.11350
H           1.35870        -2.45220         1.46630
C           2.30710        -1.20710        -0.04850
H           2.13670        -1.90000        -0.87670
H           3.28380        -0.74200        -0.21600
C           1.27440        -0.18060        -0.04930
C          -0.08670        -0.45270        -0.49210
H          -0.78180         0.20020         0.04450
H          -0.35440        -1.48200        -0.23920
C          -0.25270        -0.23480        -2.01960
H          -0.02520         0.80570        -2.26810
H           0.45070        -0.87410        -2.56040
C          -1.67700        -0.55720        -2.52390
H          -2.41280         0.07430        -2.02340
H          -1.91880        -1.60430        -2.33470
H          -1.73950        -0.37690        -3.59860
O           1.55870         0.94750         0.33740

