#Put Keywords Here, check Charge and Multiplicity.

 Heptyl alcohol

0  1
C           2.29090        -0.50330         3.94360
H           3.11810        -1.17260         4.18960
H           2.69430         0.45450         3.60930
C           1.40790        -1.12570         2.83600
H           0.99970        -2.06880         3.21170
H           0.57030        -0.45190         2.63520
C           2.17540        -1.38650         1.50820
H           3.02490        -2.04540         1.70980
H           2.56250        -0.43950         1.12070
C           1.26680        -2.04800         0.43520
H           0.43380        -1.37580         0.21530
H           0.85980        -2.96740         0.86220
C           2.00450        -2.38070        -0.89270
H           2.85370        -3.03970        -0.68760
H           2.40610        -1.45240        -1.30910
C           1.09680        -3.03550        -1.97460
H           1.69140        -3.16060        -2.88320
H           0.27290        -2.35830        -2.21520
C           0.51260        -4.41620        -1.59070
H           0.00620        -4.85450        -2.45250
H          -0.21260        -4.32010        -0.77980
H           1.30610        -5.09580        -1.27550
O           1.51630        -0.28650         5.12000
H           2.13990         0.10480         5.76640

