#Put Keywords Here, check Charge and Multiplicity.

 Heptyl formate

0  1
C           1.36720        -0.09220         0.00060
H           2.03980         0.64110        -0.00380
O           1.75840        -1.24820        -0.00340
O           0.14570         0.13060         0.01040
C          -0.46430         1.32590         0.01560
H          -0.17630         1.89060        -0.87870
H          -0.16200         1.89270         0.90280
C          -2.00350         1.14750         0.03010
H          -2.29650         0.58080        -0.85890
H          -2.28330         0.56520         0.91290
C          -2.76580         2.50360         0.04710
H          -2.48750         3.05920         0.94760
H          -2.46100         3.09390        -0.82150
C          -4.31190         2.33220         0.01630
H          -4.62570         1.77580         0.90380
H          -4.57610         1.74540        -0.86560
C          -5.06860         3.68920        -0.02860
H          -4.79020         4.26820         0.85650
H          -4.74750         4.25640        -0.90760
C          -6.61770         3.57250        -0.04530
H          -7.03320         4.58280        -0.00560
H          -6.95190         3.04420         0.85150
C          -7.20210         2.87110        -1.29430
H          -6.82800         3.33790        -2.20930
H          -6.94000         1.81260        -1.29770
H          -8.29170         2.94770        -1.28690

