#Put Keywords Here, check Charge and Multiplicity.

 1-Hexadecanol

0  1
C           0.41070        -0.25020         0.27530
H           0.03160         0.63990         0.78620
H          -0.36930        -0.65330        -0.37750
C           0.83680        -1.31490         1.31150
H           1.23930        -2.18410         0.78390
H           1.63590        -0.90470         1.93530
C          -0.34610        -1.75950         2.21310
H          -0.74480        -0.88640         2.73640
H          -1.14180        -2.16710         1.58380
C           0.06390        -2.82890         3.26010
H           0.46010        -3.70560         2.73870
H           0.85790        -2.42220         3.89370
C          -1.12460        -3.26700         4.15630
H          -1.52090        -2.39060         4.67680
H          -1.91840        -3.67290         3.52280
C          -0.72190        -4.33630         5.20570
H          -0.32760        -5.21630         4.68940
H           0.07000        -3.93350         5.84380
C          -1.91680        -4.76730         6.09630
H          -2.71010        -5.17240         5.46100
H          -2.31240        -3.88940         6.61560
C          -1.51740        -5.83720         7.14750
H          -1.12260        -6.71780         6.63060
H          -0.72460        -5.43410         7.78590
C          -2.71640        -6.26430         8.03510
H          -3.10950        -5.38190         8.54880
H          -3.50730        -6.66510         7.39400
C          -2.32690        -7.33410         9.08970
H          -1.53450        -6.93200         9.72810
H          -1.93210        -8.21460         8.57380
C          -3.53250        -7.75430         9.97190
H          -4.32140        -8.15220         9.32800
H          -3.92390        -6.87000        10.48190
C          -3.15330        -8.82440        11.03030
H          -2.76070        -9.70720        10.51790
H          -2.36310        -8.42470        11.67210
C          -4.35260        -9.25150        11.91800
H          -4.74710        -8.37210        12.43520
H          -5.14480        -9.65490        11.28070
C          -3.95850       -10.32190        12.97160
H          -3.56350       -11.20340        12.45740
H          -3.16600        -9.92140        13.61120
C          -5.15970       -10.74710        13.85790
H          -5.95490       -11.15200        13.22520
H          -5.55770        -9.87100        14.37810
C          -4.77520       -11.81210        14.90890
H          -5.65230       -12.07560        15.50380
H          -4.00300       -11.42700        15.57710
H          -4.40180       -12.71340        14.41940
O           1.53160         0.11830        -0.52040
H           1.19080         0.78900        -1.14820

