#Put Keywords Here, check Charge and Multiplicity.

 w-6-Hexadecenlactone

0  1
C          -2.19080        -1.44940        -0.46560
H          -2.49030        -0.52180        -0.95140
H          -2.73550        -1.50780         0.47860
C          -2.60580        -2.62780        -1.38940
H          -2.19810        -3.56110        -0.98780
H          -2.13560        -2.45760        -2.36400
C          -4.13940        -2.79560        -1.59760
H          -4.57510        -1.81380        -1.78150
H          -4.58390        -3.19140        -0.68200
C          -4.41990        -3.71490        -2.69770
H          -3.81480        -4.50250        -2.77690
C          -5.38610        -3.62790        -3.63070
H          -5.38320        -4.33180        -4.33480
O          -0.61170         0.91030        -0.00430
C          -0.18770         2.11710        -0.43420
H          -0.76670         2.88080         0.08870
H           0.86370         2.29140        -0.18010
C          -0.38910         2.29090        -1.96500
H           0.10010         3.22000        -2.27150
H           0.14020         1.47830        -2.46710
C          -6.46990        -2.65970        -3.72560
H          -7.38070        -3.24750        -3.87970
H          -6.62890        -2.13000        -2.78520
C          -6.35550        -1.65370        -4.91570
H          -7.36530        -1.50820        -5.31480
H          -5.76170        -2.07500        -5.73290
C          -5.82280        -0.24100        -4.53560
H          -6.14290         0.46850        -5.30470
H          -6.30380         0.06970        -3.60420
C          -4.27780        -0.12710        -4.40460
H          -3.83960        -0.08750        -5.40470
H          -3.88530        -1.01390        -3.91050
C          -3.83740         1.12740        -3.60080
H          -4.30740         1.08070        -2.61360
H          -4.19880         2.02830        -4.10500
C          -2.29620         1.23160        -3.41930
H          -1.91570         0.27070        -3.06850
H          -1.83020         1.43770        -4.38700
C          -1.88650         2.34070        -2.40920
H          -2.53040         2.26900        -1.52910
H          -2.08980         3.31340        -2.86650
C           0.00100        -0.17680         0.04940
O           1.20340        -0.20270         0.28770
C          -0.65440        -1.45490        -0.18210
H          -0.13760        -1.91560        -1.03000
H          -0.47760        -2.09540         0.68680

