#Put Keywords Here, check Charge and Multiplicity.

 Hexyl butyrate

0  1
C          -0.08570         0.01230         0.19940
C          -0.53510        -0.21880         1.55990
H          -1.34340        -0.95830         1.55280
H           0.29450        -0.64020         2.13560
C          -1.04700         1.07160         2.25700
H          -1.80330         1.56230         1.63480
H          -0.21200         1.76580         2.38470
C          -1.66700         0.79100         3.64630
H          -1.99830         1.72840         4.09720
H          -0.93090         0.32810         4.30690
H          -2.52880         0.12600         3.55400
O          -0.67840        -0.55430        -0.71340
O           0.89290         0.76600        -0.00890
C           1.44510         1.09410        -1.19050
H           0.68680         1.57300        -1.81830
H           1.79200         0.18320        -1.68860
C           2.64280         2.06510        -1.03970
H           2.29820         2.97760        -0.54640
H           3.40260         1.60050        -0.40580
C           3.25190         2.41260        -2.42830
H           3.56830         1.48240        -2.90710
H           2.46770         2.85950        -3.04450
C           4.46260         3.38340        -2.39460
H           5.25790         2.94520        -1.78600
H           4.15650         4.32420        -1.92960
C           5.01520         3.67590        -3.81850
H           4.22700         4.11670        -4.43530
H           5.32480         2.73980        -4.29180
C           6.22210         4.63910        -3.80360
H           6.57330         4.81290        -4.82220
H           7.04050         4.21240        -3.22280
H           5.93730         5.59690        -3.36680

