#Put Keywords Here, check Charge and Multiplicity.

 7410

0  1
O          -2.72110         0.18010         0.12330
C          -0.69300         1.22630         0.00330
C           0.03030         0.00020         0.02280
C           0.07170         2.42330        -0.06050
C          -2.10270         1.23690         0.05210
C           1.43690        -0.02580         0.01370
C           1.47860         2.40040        -0.07400
C           2.16190         1.17510        -0.03100
C          -2.91720         2.44420         0.03210
H          -0.45890        -0.89790         0.04450
H          -0.38320         3.33820        -0.09900
H           1.93340        -0.91930         0.03910
H           2.00270         3.27520        -0.11470
H           3.18350         1.15800        -0.03630
H          -2.67000         3.08180         0.88430
H          -3.98470         2.21740         0.08750
H          -2.74230         2.99750        -0.89210

