#Put Keywords Here, check Charge and Multiplicity.

 Hexyl2-furoate

0  1
O           0.47420         1.08620        -0.00180
C          -0.71480         0.42780         0.00220
C          -1.73980         1.37570         0.00010
H          -2.74570         1.19370        -0.00020
C          -1.13930         2.62680        -0.00080
H          -1.61090         3.53300         0.00030
C           0.23260         2.41570        -0.00200
H           0.95210         3.14100        -0.00160
C          -0.82320        -0.94620         0.01120
O           0.23050        -1.57380        -0.01100
O          -1.94300        -1.51220         0.04690
C          -2.21930        -2.73410         0.03710
H          -1.48990        -3.41080        -0.00460
C          -3.48390        -3.17960         0.07510
H          -4.22710        -2.52000         0.11730
C          -3.82050        -4.59830         0.02770
H          -4.82070        -4.73460         0.45050
H          -3.12490        -5.16340         0.65630
C          -3.80510        -5.15730        -1.42370
H          -4.62780        -4.69430        -1.97790
H          -2.86700        -4.88240        -1.91890
C          -3.95380        -6.70170        -1.49030
H          -3.11600        -7.17030        -0.96440
H          -4.87850        -7.00270        -0.99120
C          -3.97500        -7.23020        -2.94260
H          -3.04410        -6.97580        -3.45380
H          -4.08370        -8.31660        -2.94040
H          -4.81180        -6.79850        -3.49530

