#Put Keywords Here, check Charge and Multiplicity.

 Hexyl hexanoate

0  1
C           0.44980         1.93620         3.89600
C           0.82180         1.20230         2.69930
H           1.72280         0.60860         2.88870
H           0.01960         0.50130         2.45760
C           1.08910         2.12640         1.47900
H           0.15760         2.62510         1.19150
H           1.81590         2.89300         1.76480
C           1.64360         1.34220         0.25840
H           0.92510         0.56460        -0.01960
H           2.57920         0.85440         0.54850
C           1.91450         2.24150        -0.97730
H           2.63120         3.02330        -0.70990
H           0.98250         2.72330        -1.28480
C           2.47820         1.44470        -2.17540
H           2.65100         2.11530        -3.01820
H           1.77130         0.67240        -2.48380
H           3.42520         0.97290        -1.90600
O           1.18090         1.86540         4.87840
O          -0.60470         2.61090         3.91000
C          -1.10450         3.36580         4.90670
H          -0.37720         4.14010         5.17600
H          -1.28210         2.73510         5.78480
C          -2.43680         4.05010         4.50470
H          -2.26530         4.69250         3.63650
H          -3.16490         3.28450         4.22390
C          -3.00440         4.90040         5.67410
H          -3.15860         4.24610         6.53750
H          -2.26060         5.65370         5.95100
C          -4.34290         5.62620         5.36690
H          -5.09910         4.88480         5.09610
H          -4.19930         6.29830         4.51690
C          -4.83860         6.44340         6.59160
H          -4.08050         7.18230         6.86320
H          -4.97590         5.77120         7.44240
C          -6.17000         7.18750         6.34780
H          -6.45270         7.73630         7.24920
H          -6.96570         6.47950         6.10930
H          -6.06560         7.89950         5.52700

