#Put Keywords Here, check Charge and Multiplicity.

 Hexyl octanoate

0  1
C          -0.54330         2.27680         5.97560
C          -0.87790         1.50620         7.16010
H          -1.29980         2.16360         7.92580
H          -1.65030         0.77880         6.89790
C           0.35420         0.77250         7.75700
H           0.71020         0.02160         7.04320
H           1.15500         1.49920         7.91900
C           0.02640         0.07790         9.10280
H          -0.31940         0.83290         9.81530
H          -0.78520        -0.63810         8.94310
C           1.24280        -0.66800         9.71610
H           2.05940         0.04310         9.87270
H           1.58400        -1.43130         9.01190
C           0.89120        -1.34340        11.06860
H           0.54690        -0.57650        11.76860
H           0.07330        -2.05160        10.90880
C           2.09180        -2.09620        11.70080
H           2.44120        -2.86800        11.00960
H           2.91180        -1.39320        11.87030
C           1.73010        -2.76540        13.04540
H           2.60400        -3.28110        13.44840
H           0.93020        -3.49480        12.90510
H           1.40470        -2.01560        13.76880
O          -0.69230         3.49410         6.00580
O          -0.11330         1.69250         4.95790
C           0.27310         2.23990         3.79300
H           1.09090         2.94760         3.97400
H          -0.57020         2.78470         3.35260
C           0.75640         1.16710         2.78540
H           1.61250         0.63320         3.20810
H          -0.04770         0.44600         2.61310
C           1.16560         1.82110         1.43660
H           0.30400         2.36270         1.03600
H           1.96150         2.54680         1.62710
C           1.66070         0.82140         0.35790
H           0.87150         0.09320         0.15250
H           2.53410         0.28500         0.73840
C           2.03840         1.55940        -0.95630
H           2.82390         2.28940        -0.74510
H           1.16450         2.10030        -1.32810
C           2.53720         0.61780        -2.07260
H           2.78160         1.20330        -2.95940
H           1.76350        -0.10500        -2.33400
H           3.43190         0.08480        -1.74880

