#Put Keywords Here, check Charge and Multiplicity.

 24117

0  1
O           1.99710        -1.24670        -0.28500
O           3.08780         0.66740         1.61660
O           1.19870         1.48860         1.30650
C           1.79790        -2.18970        -1.12870
C           1.89470         0.08680        -0.39430
C           2.20240        -3.48160        -0.72870
C           1.19380        -2.03560        -2.40330
C           2.00450        -4.59380        -1.56830
C           0.98000        -3.15190        -3.23590
C           2.07510         0.74170         0.89310
C           1.38290        -4.43230        -2.81860
C           3.80740        -0.39640         2.00770
C           4.82990         0.04400         2.94080
C           4.79550        -0.18980         4.26020
H           2.65870         0.45940        -1.07990
H           0.90890         0.34840        -0.79860
H           2.64740        -3.62190         0.18230
H           0.89350        -1.11590        -2.73270
H           2.31090        -5.52180        -1.26900
H           0.52820        -3.03400        -4.14550
H           1.22910        -5.24210        -3.42410
H           4.30350        -0.86620         1.15530
H           3.14320        -1.13590         2.46950
H           5.60620         0.55020         2.57810
H           5.53370         0.13690         4.83920
H           4.04180        -0.68360         4.67970

