#Put Keywords Here, check Charge and Multiplicity.

 Jasmin Absolute

0  1
C          -2.72040        -3.91880        -0.06280
H          -2.20030        -4.23460         0.84700
H          -3.75000        -3.64660         0.18800
C          -2.69350        -5.02930        -1.12690
H          -2.00320        -5.82430        -0.83130
H          -3.68820        -5.45790        -1.27270
C          -2.19640        -4.33430        -2.40610
H          -1.34710        -4.87260        -2.83650
H          -2.99650        -4.27010        -3.14820
C          -1.80400        -3.01150        -1.98330
C          -1.18560        -2.07410        -2.90880
H          -0.09960        -2.11890        -2.80590
H          -1.45130        -2.31700        -3.94040
H          -1.52160        -1.05410        -2.72030
C          -2.06500        -2.79090        -0.68350
C          -1.78830        -1.56500         0.06710
H          -2.35290        -0.75070        -0.39420
H          -2.16150        -1.65810         1.08990
C          -0.36970        -1.25240         0.16620
H           0.25770        -1.99630         0.38170
C           0.11710        -0.01140        -0.00540
H          -0.51480         0.73580        -0.18770
C           1.52520         0.31980         0.05490
H           1.71550         0.93080         0.93820
H           2.16360        -0.56570         0.09720
H           1.79800         0.89320        -0.83280

