#Put Keywords Here, check Charge and Multiplicity.

 Lauric aldehyde

0  1
C           0.41990         2.98050        -9.49490
H           0.32980         2.03990        -9.18950
C          -0.15110         4.05870        -8.71590
H          -0.02520         5.00810        -9.24710
H          -1.22390         3.87400        -8.60460
C           0.50370         4.17320        -7.31460
H           0.36340         3.23020        -6.78010
H           1.57840         4.34160        -7.43330
C          -0.09600         5.32390        -6.46330
H           0.04530         6.26980        -6.99200
H          -1.17020         5.16030        -6.34390
C           0.55820         5.42580        -5.06050
H           0.41550         4.47900        -4.53150
H           1.63300         5.58960        -5.18030
C          -0.03300         6.57600        -4.20170
H           0.10990         7.52350        -4.72880
H          -1.10750         6.41240        -4.07890
C           0.62850         6.67030        -2.80160
H           1.70320         6.83270        -2.92550
H           0.48570         5.72190        -2.27550
C           0.04280         7.81860        -1.93660
H          -1.03130         7.65620        -1.81120
H           0.18630         8.76720        -2.46150
C           0.70530         7.91190        -0.53690
H           1.78040         8.07340        -0.66060
H           0.56350         6.96310        -0.01060
C           0.11470         9.06270         0.32310
H           0.25800        10.01100        -0.20340
H          -0.96000         8.89970         0.44720
C           0.76970         9.16460         1.72370
H           0.62610         8.22230         2.25970
H           1.84410         9.33360         1.60920
C           0.18100        10.30970         2.57770
H           0.67800        10.33360         3.54900
H          -0.88840        10.15690         2.73790
H           0.33420        11.27230         2.08500
O           1.01010         3.19900       -10.54180

