#Put Keywords Here, check Charge and Multiplicity.

 Lauryl acetate

0  1
C          -0.27500         0.10730         0.17800
C          -0.82820        -1.00120         0.91750
H          -0.33890        -1.07640         1.88980
H          -1.90110        -0.87680         1.07970
H          -0.66820        -1.92880         0.36560
O          -1.01160         1.02240        -0.17460
O           0.94530         0.09850        -0.08080
C           1.67210         1.00880        -0.74690
H           1.28130         1.12020        -1.76660
H           1.61250         1.97730        -0.23390
C           3.15500         0.57310        -0.82370
H           3.55180         0.45840         0.18990
H           3.22260        -0.39330        -1.33310
C           3.99030         1.63080        -1.59580
H           3.89610         2.59270        -1.08170
H           3.56810         1.74390        -2.59950
C           5.49620         1.28770        -1.72930
H           5.93120         1.18320        -0.73150
H           5.60260         0.33300        -2.25180
C           6.24820         2.39950        -2.51350
H           6.12120         3.34780        -1.98410
H           5.79300         2.49850        -3.50290
C           7.76310         2.12550        -2.68770
H           8.22110         2.02910        -1.69970
H           7.89270         1.17920        -3.21950
C           8.49270         3.25040        -3.47450
H           8.03940         3.35120        -4.46490
H           8.36750         4.20030        -2.94660
C          10.00790         2.95840        -3.63860
H          10.13120         2.00920        -4.16710
H          10.45950         2.85880        -2.64780
C          10.75960         4.06740        -4.42130
H          10.31450         4.16930        -5.41550
H          10.64310         5.01950        -3.89510
C          12.27290         3.75900        -4.57580
H          12.72010         3.65640        -3.58200
H          12.39170         2.80650        -5.10180
C          13.02640         4.86720        -5.35840
H          12.91410         5.82110        -4.83520
H          12.58590         4.97170        -6.35400
C          14.53190         4.56210        -5.51310
H          15.01590         5.36730        -6.06800
H          14.67560         3.62730        -6.05780
H          15.00510         4.48000        -4.53300

