#Put Keywords Here, check Charge and Multiplicity.

 Lauryl alcohol

0  1
C          -2.13400         4.99860         8.25650
H          -2.76610         5.69560         7.70230
H          -1.22370         5.51200         8.57310
C          -1.77930         3.77970         7.37120
H          -1.17060         3.08360         7.95560
H          -2.70340         3.26610         7.09010
C          -1.00540         4.18710         6.08640
H          -1.61770         4.88630         5.50910
H          -0.08500         4.70370         6.37440
C          -0.64370         2.97220         5.18960
H          -0.02950         2.27430         5.76580
H          -1.56390         2.45700         4.89940
C           0.12850         3.39110         3.91020
H          -0.48640         4.09030         3.33640
H           1.04720         3.90770         4.20230
C           0.49410         2.18270         3.00770
H           1.11000         1.48220         3.57960
H          -0.42360         1.66480         2.71370
C           1.26620         2.61230         1.73090
H           2.18310         3.13090         2.02710
H           0.64910         3.31350         1.16100
C           1.63670         1.41010         0.82120
H           0.71940         0.89230         0.52620
H           2.25300         0.70970         1.39210
C           2.40930         1.83840        -0.45700
H           3.32630         2.35650        -0.16110
H           1.79240         2.53910        -1.02720
C           2.77610         0.63050        -1.36130
H           3.39020        -0.06930        -0.78730
H           1.85750         0.11320        -1.65270
C           3.54880         1.04690        -2.64210
H           2.93990         1.74420        -3.22360
H           4.47080         1.56190        -2.35930
C           3.91430        -0.15500        -3.54300
H           4.45410         0.19700        -4.42470
H           3.01260        -0.67540        -3.87230
H           4.55160        -0.85860        -3.00340
O          -2.83970         4.57580         9.41710
H          -3.02480         5.39800         9.91840

