#Put Keywords Here, check Charge and Multiplicity.

 Linalool

0  1
C          -4.71060         0.05660         1.41530
C          -3.36100        -0.74000         1.36240
H          -3.53050        -1.73390         1.78910
H          -2.63340        -0.23690         2.00960
C          -2.71190        -0.87460        -0.05110
H          -3.43450        -1.19890        -0.79990
H          -2.38700         0.12110        -0.36540
C          -1.56580        -1.77630        -0.07800
H          -0.67580        -1.32790        -0.05990
C          -1.59920        -3.13110        -0.11430
C          -0.34790        -3.89520        -0.13860
H          -0.29530        -4.49620        -1.04950
H           0.54700        -3.26810        -0.10930
H          -0.30190        -4.56790         0.72180
C          -2.82720        -3.93350        -0.13520
H          -2.82630        -4.64140         0.69660
H          -3.74350        -3.35580        -0.05240
H          -2.88110        -4.49620        -1.06930
C          -5.77070        -0.63970         0.67080
H          -6.29880        -1.34370         1.13870
C          -6.06380        -0.42000        -0.61810
H          -5.56250         0.24730        -1.15330
H          -6.78180        -0.93780        -1.06470
C          -5.15290         0.23930         2.89820
H          -6.08690         0.80280         2.95820
H          -5.30160        -0.73100         3.37750
H          -4.39360         0.78520         3.46210
O          -4.49500         1.38260         0.91060
H          -5.36980         1.82700         0.96080

