#Put Keywords Here, check Charge and Multiplicity.

 Linalyl acetate

0  1
C          -0.20730         0.00330         0.18920
C          -0.63290        -1.19200         0.87890
H          -0.11540        -1.26760         1.83690
H          -1.70920        -1.19010         1.06870
H          -0.39240        -2.06970         0.27610
O          -1.03690         0.85350        -0.11320
O           1.01040         0.13190        -0.07060
C           1.73240         1.08900        -0.71540
C           3.21610         0.57600        -0.76540
H           3.82560         1.30420        -1.31020
H           3.24800        -0.34990        -1.34950
C           3.89400         0.26460         0.60350
H           3.68750         1.03140         1.34810
H           3.45580        -0.65890         0.99460
C           5.33780         0.09570         0.47980
H           5.65040        -0.84900         0.47110
C           6.26810         1.07530         0.35780
C           7.68550         0.73020         0.22200
H           8.25760         1.17430         1.04000
H           7.87700        -0.34570         0.23360
H           8.07100         1.12000        -0.72260
C           5.97060         2.51170         0.35240
H           6.36360         2.97050        -0.55760
H           4.90940         2.74870         0.39580
H           6.44820         2.99070         1.21030
C           1.69490         2.41730        -0.07270
H           1.91510         3.21370        -0.62890
C           1.40920         2.65120         1.21690
H           1.20150         1.91270         1.84360
H           1.41420         3.57870         1.56690
C           1.23970         1.21700        -2.19900
H           1.93080         1.82110        -2.79390
H           1.16280         0.23220        -2.66560
H           0.25940         1.69230        -2.24750

