#Put Keywords Here, check Charge and Multiplicity.

 Linalyl anthranilate

0  1
C          -0.18420        -0.14990         0.06640
C          -0.47020        -1.53240         0.00280
C           0.53350        -2.54280        -0.07800
N           1.90280        -2.25600        -0.09950
H           2.12050        -1.74360         0.75780
H           2.07170        -1.62370        -0.88440
C           0.18870        -3.91200        -0.13560
H           0.91470        -4.62810        -0.19780
C          -1.15460        -4.31580        -0.10410
H          -1.40080        -5.30820        -0.13890
C          -2.16130        -3.34560        -0.02180
H          -3.14220        -3.63320         0.00400
C          -1.82330        -1.98110         0.02750
H          -2.59780        -1.31390         0.08640
O          -1.12130         0.63900         0.14470
O           0.99360         0.32110         0.07640
C           1.47580         1.59910         0.22370
C           3.05260         1.60370         0.17890
H           3.39060         2.64470         0.23610
H           3.37940         1.22460        -0.79430
C           3.82670         0.78850         1.26000
H           3.39630         0.92330         2.25150
H           3.72360        -0.27270         1.02220
C           5.25040         1.12000         1.31960
H           5.85330         0.48190         0.85270
C           5.81690         2.19450         1.92230
C           7.27080         2.37910         1.89760
H           7.65790         2.38690         2.91960
H           7.80000         1.59460         1.35150
H           7.51810         3.33270         1.42370
C           5.06920         3.23550         2.63470
H           5.29840         4.21720         2.21550
H           3.98850         3.12240         2.58850
H           5.35230         3.23780         3.68910
C           1.02610         2.23380         1.48050
H           0.89110         3.21900         1.49230
C           0.79430         1.58660         2.63160
H           0.91360         0.60420         2.70940
H           0.49610         2.09170         3.43120
C           1.00550         2.47560        -0.99440
H           1.41540         3.48780        -0.93510
H           1.33620         2.03600        -1.93830
H          -0.07950         2.57170        -1.03090

