#Put Keywords Here, check Charge and Multiplicity.

 Menthyl isovalerate

0  1
C           4.73000         0.51620        -1.21100
C           5.25630         0.78930        -2.53710
H           5.23010         1.87060        -2.70490
H           4.58630         0.34580        -3.28140
C           6.70160         0.24710        -2.79590
H           6.62810        -0.84120        -2.89210
C           7.71110         0.53650        -1.64810
H           8.71350         0.19840        -1.92070
H           7.41810        -0.00270        -0.74510
H           7.74940         1.60590        -1.42810
C           7.26310         0.79160        -4.14140
H           8.22970         0.33480        -4.36980
H           6.58100         0.56280        -4.96260
H           7.39840         1.87520        -4.09180
O           4.97570         1.33000        -0.32900
O           4.01220        -0.49230        -1.02130
C           3.52420        -1.12650         0.07290
H           3.92250        -2.13940        -0.04680
C           1.95180        -1.25800         0.04270
H           1.69820        -1.80950        -0.86880
C           1.53510        -2.21270         1.21810
H           1.97640        -3.20000         1.04840
H           0.45760        -2.38310         1.23700
C           2.00910        -1.70050         2.60540
H           1.53160        -0.74070         2.82220
H           1.68730        -2.40890         3.37410
C           3.55960        -1.55560         2.64000
H           3.99170        -2.55350         2.49950
C           4.04390        -0.64780         1.47080
H           5.13810        -0.64860         1.45580
H           3.71560         0.37800         1.65970
C           4.07950        -1.03670         4.00770
H           3.73180        -0.02060         4.20470
H           5.17180        -1.03600         4.00910
H           3.74190        -1.68540         4.81900
C           1.15430         0.11450        -0.03790
H           1.55580         0.79100         0.71830
C          -0.36860        -0.01100         0.28070
H          -0.88500         0.93890         0.12590
H          -0.52630        -0.27930         1.32510
H          -0.83520        -0.76490        -0.35600
C           1.31890         0.83460        -1.41790
H           0.50990         1.54160        -1.61440
H           2.23230         1.42290        -1.43380
H           1.35160         0.12150        -2.24630

