#Put Keywords Here, check Charge and Multiplicity.

 2-Methoxy-4-methylphenol

0  1
C           1.65240        -0.98200        -0.88810
C           1.09680        -0.12500         0.09070
C           1.73670         1.11220         0.35070
H           1.35320         1.74280         1.05990
C           2.90090         1.50130        -0.34880
C           3.42590         0.63310        -1.32980
H           4.26300         0.89090        -1.85600
C           2.81110        -0.60310        -1.59280
H           3.21500        -1.22470        -2.29800
C           3.54730         2.79850        -0.03940
H           2.82580         3.60950        -0.15600
H           4.39240         2.99730        -0.70010
H           3.90940         2.79240         0.99120
O           0.03370        -0.51700         0.68760
C          -0.74170         0.08930         1.59420
H          -1.55960        -0.58430         1.84670
H          -0.18220         0.31190         2.50450
H          -1.15780         1.01280         1.18610
O           1.11490        -2.09260        -1.14390
H           1.45130        -2.62490        -1.75860

