#Put Keywords Here, check Charge and Multiplicity.

 2-Methoxy-4-vinylphenol

0  1
C          -0.52450        -4.08920         0.19710
C           0.83480        -3.89670        -0.13250
C           1.30810        -2.57420        -0.32820
H           2.29420        -2.44050        -0.56900
C           0.46190        -1.44210        -0.19990
C          -0.90010        -1.67910         0.11810
H          -1.56300        -0.90970         0.22190
C          -1.38720        -2.98300         0.31180
H          -2.37450        -3.12120         0.53850
C           1.01420        -0.16300        -0.37870
H           2.00310        -0.09880        -0.47870
C           0.35930         1.00740        -0.43170
H           0.86360         1.85440        -0.55230
H          -0.62620         1.07010        -0.35840
O           1.56560        -4.94350        -0.23490
C           2.86860        -5.09130        -0.50400
H           3.10370        -6.15620        -0.50390
H           3.11240        -4.68310        -1.48900
H           3.47800        -4.60260         0.25970
O          -0.97560        -5.24980         0.38950
H          -1.82340        -5.38010         0.58440

