#Put Keywords Here, check Charge and Multiplicity.

 12348

0  1
O          -0.19530         0.16270        -0.23240
O           1.51230        -0.06020         1.04640
C          -2.21840        -2.46610        -1.94720
C          -1.92540        -1.13760        -1.20120
C          -3.71150        -2.65920        -2.31220
C          -0.42190        -1.00280        -0.85500
C          -3.96690        -3.99230        -3.05280
C           0.89500         0.57170         0.19860
C           1.42430         1.82080        -0.28560
H          -1.62740        -2.48740        -2.86720
H          -1.90290        -3.29940        -1.31320
H          -2.50810        -1.10430        -0.27440
H          -2.22440        -0.29280        -1.83080
H          -4.31280        -2.64740        -1.40030
H          -4.03840        -1.83720        -2.95300
H          -0.12720        -1.84180        -0.21530
H           0.16160        -1.03760        -1.78210
H          -3.39810        -4.02650        -3.98420
H          -3.67330        -4.83830        -2.42790
H          -5.02680        -4.08850        -3.29030
H           1.07800         2.01500        -1.30340
H           2.51700         1.79770        -0.29600
H           1.09290         2.63010         0.36550

