#Put Keywords Here, check Charge and Multiplicity.

 4'-Methylacetophenone

0  1
C          -0.20600         0.52040         0.26800
C          -1.17040         0.53910         1.36220
H          -1.61750         1.52730         1.50090
H          -0.67910         0.26210         2.29820
H          -1.97970        -0.16650         1.15890
O          -0.03780         1.58260        -0.32190
C           0.51640        -0.62670        -0.12270
C           1.44530        -0.58900        -1.19850
H           1.60710         0.27890        -1.71620
C           2.16940        -1.73350        -1.59120
H           2.82440        -1.66700        -2.37570
C           1.99560        -2.96250        -0.91720
C           1.07000        -3.01800         0.14520
H           0.90980        -3.89590         0.64500
C           0.35040        -1.87480         0.53420
H          -0.30350        -1.97920         1.31330
C           2.74230        -4.17960        -1.32110
H           2.90900        -4.84300        -0.46730
H           3.72020        -3.92900        -1.73990
H           2.16700        -4.72300        -2.07370

