#Put Keywords Here, check Charge and Multiplicity.

 Methyl p-anisate

0  1
C          -1.83190         0.68490        -1.17770
C          -2.61260        -0.11170        -0.29980
H          -2.17500        -0.65800         0.44700
C          -4.01130        -0.18760        -0.42440
H          -4.53260        -0.78120         0.22530
C          -4.68490         0.53570        -1.43610
C          -3.92030         1.34080        -2.30400
H          -4.37950         1.87590        -3.04480
C          -2.52130         1.41600        -2.17940
H          -2.01330         2.01540        -2.83510
O          -5.94940         0.50370        -1.63300
C          -6.90580        -0.19630        -1.01550
H          -7.86440         0.01840        -1.48560
H          -6.70880        -1.26750        -1.09920
H          -6.96830         0.08590         0.03670
C          -0.43630         0.74100        -1.06090
O           0.23620         1.36030        -1.87990
O           0.12770         0.15670        -0.11150
C           1.42410        -0.04950         0.14960
H           1.95690         0.89860         0.26170
H           1.50030        -0.60240         1.08620
H           1.88790        -0.64340        -0.64270

