#Put Keywords Here, check Charge and Multiplicity.

 2-Methylanisole

0  1
C           1.42550        -0.20680         0.00850
H           1.50760        -1.29340         0.05590
H           1.95760         0.21670         0.86360
H           1.89160         0.13320        -0.91840
O           0.12980         0.12810         0.04410
C          -0.46630         1.26130         0.01360
C          -1.88430         1.27280         0.14120
C          -2.56940         2.51180         0.15510
H          -3.58590         2.53850         0.26340
C          -1.87280         3.72290         0.02290
H          -2.38500         4.60910         0.03500
C          -0.47860         3.71390        -0.12890
H           0.02560         4.59700        -0.23480
C           0.22040         2.49310        -0.13400
H           1.23620         2.51470        -0.24570
C          -2.67650         0.02350         0.28710
H          -2.21460        -0.80770        -0.24900
H          -3.68590         0.14610        -0.11160
H          -2.74750        -0.23210         1.34510

