#Put Keywords Here, check Charge and Multiplicity.

 4-Methylanisole

0  1
C           1.43180        -0.25020         0.00710
H           1.48940        -1.33820         0.06080
H           1.97150         0.16640         0.86020
H           1.90410         0.07860        -0.92110
O           0.14360         0.10810         0.04070
C          -0.41100         1.25860         0.01000
C          -1.81520         1.28750         0.13910
H          -2.33900         0.41330         0.23680
C          -2.51350         2.50800         0.14220
H          -3.53160         2.49410         0.24330
C          -1.82340         3.73490         0.01270
C          -0.41710         3.70730        -0.13000
H           0.11060         4.57820        -0.23120
C           0.28080         2.48540        -0.13500
H           1.29710         2.49930        -0.24360
C          -2.55410         5.02470         0.04410
H          -3.57450         4.91030        -0.32790
H          -2.05720         5.77410        -0.57590
H          -2.59680         5.39370         1.07070

