#Put Keywords Here, check Charge and Multiplicity.

 Methyl anthranilate

0  1
C          -0.46060         0.60960        -1.05590
C          -1.87100         0.62010        -1.07410
C          -2.68700         0.03330        -0.05770
N          -2.16850        -0.61890         1.07190
H          -1.57270        -1.37990         0.74000
H          -1.57270         0.04910         1.56500
C          -4.09770         0.08300        -0.14370
H          -4.67840        -0.33880         0.58680
C          -4.72900         0.71000        -1.22970
H          -5.75080         0.74320        -1.28720
C          -3.95010         1.29250        -2.23870
H          -4.40420         1.75060        -3.03220
C          -2.54750         1.24680        -2.15960
H          -2.02480         1.68720        -2.92230
O           0.16290         1.13880        -1.97240
O           0.19080         0.07500        -0.13000
C           1.52170        -0.02390         0.04150
H           1.98150         0.96590         0.10670
H           1.71520        -0.56000         0.97000
H           1.98150        -0.57530        -0.78310

