#Put Keywords Here, check Charge and Multiplicity.

 a-Methylbenzyl acetate

0  1
C          -0.12150         0.01910         0.04360
C          -0.55480        -1.05980         0.90050
H          -0.19870        -0.88120         1.91710
H          -1.64460        -1.14330         0.92540
H          -0.14520        -2.00670         0.54090
O          -0.95890         0.70580        -0.53080
O           1.10510         0.20670        -0.09180
C           1.79990         1.16990        -0.73150
H           1.40870         1.27210        -1.75130
C           3.21590         0.68930        -0.81960
C           4.16680         0.92370         0.20640
H           3.90340         1.42720         1.05380
C           5.49680         0.48170         0.08280
H           6.17570         0.68200         0.82060
C           5.89560        -0.23470        -1.05760
H           6.86210        -0.55420        -1.15060
C           4.96400        -0.51110        -2.07080
H           5.25020        -1.04370        -2.89560
C           3.63950        -0.04970        -1.95310
H           2.98300        -0.26070        -2.70690
C           1.64450         2.57060        -0.06600
H           2.39110         3.26570        -0.45680
H           0.65720         2.98760        -0.27050
H           1.76290         2.49880         1.01670

