#Put Keywords Here, check Charge and Multiplicity.

 a-Methylbenzyl butyrate

0  1
C          -1.52420        -2.89450         1.44440
C          -1.65780        -3.13570         2.86940
H          -1.94040        -4.17810         3.04680
H          -0.68160        -2.97980         3.33780
C          -2.70170        -2.20010         3.53920
H          -3.62230        -2.18030         2.94610
H          -2.29790        -1.18420         3.57540
C          -3.05910        -2.62920         4.98080
H          -2.15670        -2.72420         5.58780
H          -3.70760        -1.87980         5.43840
H          -3.58530        -3.58610         4.97230
O          -1.79380        -3.79630         0.65800
O          -1.11270        -1.77900         1.06130
C          -0.90140        -1.28560        -0.17480
H          -0.28290        -1.99940        -0.73230
C          -0.11550        -0.02140        -0.01550
C          -0.72560         1.24740         0.16260
H          -1.74150         1.33260         0.22420
C           0.04820         2.42170         0.24440
H          -0.40700         3.33340         0.34040
C           1.45010         2.34340         0.18950
H           2.01460         3.19330         0.24160
C           2.07660         1.09330         0.06500
H           3.09660         1.03380         0.03920
C           1.30040        -0.07430        -0.03280
H           1.77950        -0.97240        -0.12040
C          -2.21160        -1.12510        -0.99920
H          -2.03260        -0.52050        -1.89090
H          -2.58080        -2.10120        -1.32070
H          -2.98800        -0.64630        -0.40050

