#Put Keywords Here, check Charge and Multiplicity.

 a-Methylbenzyl propionate

0  1
C          -1.51360        -2.84350         1.47790
C          -1.65380        -3.00420         2.91190
H          -1.92740        -4.03490         3.15500
H          -0.68980        -2.79760         3.38550
C          -2.73290        -2.07260         3.50730
H          -2.88380        -2.31750         4.56080
H          -2.42410        -1.02660         3.43190
H          -3.68070        -2.20680         2.97950
O          -1.78690        -3.77950         0.73570
O          -1.10020        -1.75120         1.04180
C          -0.89250        -1.30600        -0.21200
H          -0.28210        -2.03580        -0.75850
C          -0.10950        -0.04140        -0.06480
C          -0.72810         1.21430         0.16240
H          -1.74480         1.29510         0.23100
C           0.04360         2.38270         0.30390
H          -0.41550         3.28500         0.44640
C           1.44650         2.31480         0.25110
H           2.00620         3.16430         0.35380
C           2.07710         1.07370         0.06240
H           3.09590         1.01390         0.04900
C           1.30620        -0.09100        -0.10090
H           1.78930        -0.98340        -0.23840
C          -2.20990        -1.15810        -1.02370
H          -2.04080        -0.56610        -1.92530
H          -2.57770        -2.13850        -1.32860
H          -2.98520        -0.68200        -0.42140

