#Put Keywords Here, check Charge and Multiplicity.

 Methyl p-tert-butylphenylacetate

0  1
C          -0.47400         0.70130        -1.09120
C          -1.92380         0.71860        -1.04820
H          -2.32700         1.29680        -1.88530
H          -2.23640         1.24170        -0.13970
O           0.10680         1.21460        -2.04110
O           0.13890         0.16190        -0.14850
C          -2.47960        -0.66240        -1.08300
C          -2.64550        -1.34270        -2.30740
H          -2.39150        -0.88790        -3.18860
C          -3.15190        -2.65410        -2.33790
H          -3.21950        -3.09700        -3.25180
C          -3.54070        -3.34280        -1.15620
C          -3.32040        -2.65280         0.06790
H          -3.51030        -3.09640         0.96470
C          -2.82020        -1.34000         0.10740
H          -2.69280        -0.88590         1.01550
C          -4.10420        -4.76030        -1.19410
C          -2.90340        -5.75550        -1.11300
H          -3.25340        -6.79110        -1.13550
H          -2.33950        -5.60840        -0.18760
H          -2.22120        -5.61000        -1.95520
C          -4.92320        -5.06100        -2.50140
H          -5.40300        -6.04100        -2.45900
H          -5.70300        -4.31050        -2.64270
H          -4.28870        -5.07050        -3.38760
C          -5.09120        -5.06040        -0.00840
H          -5.56140        -6.04020        -0.11370
H          -4.58120        -5.06950         0.95500
H          -5.88250        -4.30920         0.02650
C           1.45490         0.00000         0.03620
H           1.95930         0.96770         0.11470
H           1.61130        -0.54810         0.96610
H           1.89640        -0.57550        -0.78320

