#Put Keywords Here, check Charge and Multiplicity.

 2-Methylbutyraldehyde

0  1
C          -1.35910         0.66100         1.15300
H          -0.38300         0.78860         1.03450
C          -2.26060         1.76930         0.85620
H          -2.01990         2.10880        -0.15540
C          -2.05430         2.98060         1.82220
H          -2.75520         3.77200         1.54390
H          -2.29620         2.68050         2.84500
C          -0.63880         3.60820         1.82120
H          -0.36580         3.92640         0.81380
H          -0.62810         4.47760         2.48090
H           0.10660         2.90060         2.18730
O          -1.73340        -0.44200         1.52300
C          -3.75940         1.34590         0.82930
H          -4.08920         1.00160         1.81280
H          -4.38800         2.18710         0.53030
H          -3.91170         0.53910         0.10960

