#Put Keywords Here, check Charge and Multiplicity.

 7519

0  1
O          -0.77480        -0.98720        -0.45370
C          -0.04300         0.04680        -0.28580
C          -0.71620         1.25730        -0.01170
C           1.37290         0.05660        -0.35300
C           0.00050         2.45070         0.19690
C           2.09060         1.25090        -0.14730
C           1.40540         2.44610         0.13520
C          -0.45600        -2.25950        -0.71550
H          -1.73770         1.27800         0.03850
H           1.89010        -0.80170        -0.55370
H          -0.50010         3.32200         0.39040
H           3.11180         1.24970        -0.20340
H           1.92920         3.30970         0.29340
H          -1.37640        -2.84060        -0.75780
H           0.05200        -2.35100        -1.67780
H           0.17770        -2.66980         0.07340

