#Put Keywords Here, check Charge and Multiplicity.

 Methyl isobutyrate

0  1
C          -0.50840         0.60960        -1.05620
C          -1.97080         0.59800        -1.03450
H          -2.34420         1.11420        -1.92840
C          -2.53520         1.37930         0.18420
H          -2.27520         0.88560         1.12230
H          -2.13970         2.39720         0.20330
H          -3.62250         1.44260         0.11500
C          -2.53700        -0.84750        -1.10120
H          -2.27650        -1.41350        -0.20500
H          -2.14350        -1.37320        -1.97380
H          -3.62450        -0.81780        -1.18890
O           0.06380         1.15270        -1.99680
O           0.13840         0.07370        -0.12840
C           1.46980        -0.01780         0.03060
H           1.92540         0.97450         0.09350
H           1.68370        -0.55170         0.95540
H           1.92570        -0.56820        -0.79730

