#Put Keywords Here, check Charge and Multiplicity.

 6-Methylcoumarin

0  1
O          -4.12120         0.45880         0.43380
C          -4.68120         1.65690         0.64980
O          -5.89920         1.74580         0.68610
C          -3.88910         2.77100         0.82710
H          -4.30110         3.69220         0.99340
C          -2.49130         2.63060         0.77720
H          -1.90360         3.45780         0.91010
C          -1.90650         1.36720         0.54860
C          -0.51130         1.17600         0.49170
H           0.11010         1.97960         0.61280
C           0.03490        -0.10870         0.27000
C          -0.84210        -1.20410         0.08860
H          -0.47120        -2.14130        -0.08540
C          -2.23750        -1.02600         0.14310
H          -2.86010        -1.82980         0.01580
C          -2.76960         0.25690         0.37350
C           1.50370        -0.28620         0.20950
H           1.83730        -0.15040        -0.81910
H           2.01730         0.44170         0.84100
H           1.79530        -1.28060         0.54890

