#Put Keywords Here, check Charge and Multiplicity.

 4-(3,4-Methylenedioxyphenyl)-2-butanone

0  1
C           4.63190        -1.06580        -1.97820
H           5.25860        -0.92240        -2.86090
H           5.13880        -0.60490        -1.12860
H           3.68000        -0.55600        -2.13510
C           4.39560        -2.47540        -1.74590
C           4.20320        -3.02080        -0.41170
H           3.67550        -2.29170         0.21010
H           3.57200        -3.91220        -0.47180
C           5.54870        -3.40090         0.25810
H           6.20520        -2.52690         0.28900
H           6.05490        -4.15470        -0.35150
O           4.35110        -3.22940        -2.70950
C           5.33920        -3.91930         1.63650
C           5.33040        -3.02680         2.73960
H           5.48950        -2.02460         2.61490
C           5.08980        -3.54170         4.02240
C           4.87000        -4.89030         4.22810
C           4.87440        -5.80240         3.16080
H           4.70560        -6.79770         3.32140
C           5.11360        -5.30540         1.86110
H           5.11750        -5.96190         1.07590
C           4.76920        -3.87990         6.08640
H           3.82660        -3.64870         6.59190
H           5.58230        -3.89510         6.81810
O           5.02270        -2.97380         5.13080
O           4.68560        -5.05950         5.45050

