#Put Keywords Here, check Charge and Multiplicity.

 5-Methylfurfural

0  1
C          -2.94570         1.79830         0.55250
H          -3.90010         1.56180         0.41900
C          -1.97020         0.83970         0.41940
C          -2.17720        -0.50100         0.10120
H          -3.07430        -0.95680        -0.07550
C          -0.93310        -1.11100         0.06910
H          -0.74770        -2.09500        -0.13750
C           0.00740        -0.13160         0.37220
O          -0.63640         1.04550         0.57820
O          -2.66190         2.95180         0.83520
C           1.46180        -0.32780         0.44700
H           1.90090        -0.15180        -0.53570
H           1.89640         0.37240         1.16360
H           1.69470        -1.34480         0.76700

