#Put Keywords Here, check Charge and Multiplicity.

 Methyl heptanoate

0  1
C          -0.40010         0.59060        -1.08000
C          -1.85280         0.56420        -1.07780
H          -2.23040         1.02430        -1.99720
H          -2.18290        -0.47770        -1.07630
C          -2.47870         1.30820         0.13540
H          -2.20030         0.79020         1.05730
H          -2.07210         2.32380         0.17840
C          -4.02910         1.39050         0.04740
H          -4.43890         0.37740         0.03000
H          -4.29270         1.88320        -0.89110
C          -4.67590         2.17610         1.22330
H          -4.40020         1.68280         2.16050
H          -4.26670         3.19030         1.24970
C          -6.22660         2.26590         1.16830
H          -6.56930         2.75930         2.08280
H          -6.64890         1.25770         1.16080
C          -6.79110         3.05690        -0.03630
H          -6.32420         4.04050        -0.09920
H          -6.61500         2.51890        -0.96860
H          -7.86800         3.19230         0.08140
O           0.17970         1.13510        -2.01270
O           0.22270         0.04780        -0.14400
C           1.54580        -0.05020         0.05410
H           2.00090         0.93880         0.15660
H           1.71970        -0.60780         0.97430
H           2.02490        -0.58580        -0.77000

