#Put Keywords Here, check Charge and Multiplicity.

 16724

0  1
O          -0.03470         2.12470        -0.55550
C          -2.59960         0.16620         1.07480
C          -1.41710         1.20610         1.13500
C          -2.46180        -0.90190        -0.07210
C          -3.93620         0.81010         1.10550
C          -0.49040         1.08880        -0.01430
C          -1.08480        -1.14610        -0.48460
C          -0.14680        -0.17560        -0.48420
C          -4.37280         1.67590         0.00010
C           1.19800        -0.42600        -0.99000
C          -4.75550         0.62150         2.15920
H          -2.47070        -0.43160         1.98790
H          -0.81860         1.01790         2.03330
H          -1.77200         2.23600         1.22320
H          -2.91470        -1.84460         0.25350
H          -2.99020        -0.59420        -0.97530
H          -0.85970        -2.05410        -0.82640
H          -4.46510         1.10710        -0.92350
H          -3.65810         2.48230        -0.16520
H          -5.34410         2.14290         0.18010
H           1.22570        -0.20000        -2.05730
H           1.93490         0.20100        -0.48020
H           1.49840        -1.46610        -0.84060
H          -5.65090         1.04660         2.20340
H          -4.48840         0.05190         2.92670

