#Put Keywords Here, check Charge and Multiplicity.

 7695

0  1
O           0.44620         0.20400        -0.76180
O          -3.89810         2.55430        -4.47680
O           1.50860        -0.23570         1.06980
C          -1.65410         0.92570        -1.41630
C          -0.82620         0.31750        -0.34220
C          -1.78710         0.28800        -2.67130
C          -2.32310         2.15430        -1.21260
C          -3.22180         2.09950        -3.49230
C          -2.55610         0.87210        -3.69550
C          -3.09740         2.73540        -2.23450
C           1.43620        -0.24310        -0.15390
C          -4.65110         3.65430        -4.61010
C           2.54470        -0.78750        -0.89930
H          -1.23460        -0.66950        -0.10450
H          -0.86470         0.92520         0.56870
H          -1.32040        -0.60560        -2.84810
H          -2.24910         2.63790        -0.31400
H          -2.62570         0.39660        -4.59780
H          -3.56420         3.62710        -2.05700
H           2.36890        -0.73990        -1.97570
H           2.68580        -1.83190        -0.62160
H           3.45680        -0.23470        -0.67470
H          -5.04680         3.67360        -5.62580
H          -5.49230         3.64130        -3.91300
H          -4.05990         4.55970        -4.45380

