#Put Keywords Here, check Charge and Multiplicity.

 Methyl2-methoxybenzoate

0  1
C          -0.44550         0.61390        -1.13060
C          -1.85520         0.68060        -1.10620
C          -2.63580         0.31930         0.03770
C          -4.05290         0.39550        -0.02480
H          -4.62870         0.13280         0.77910
C          -4.70380         0.84170        -1.18610
H          -5.72480         0.89750        -1.21510
C          -3.95000         1.21410        -2.30590
H          -4.41960         1.54490        -3.15270
C          -2.54960         1.12820        -2.26580
H          -2.04400         1.40150        -3.11340
O           0.18380         1.09790        -2.06800
O           0.18460         0.05680        -0.20430
O          -2.03080        -0.05870         1.10480
C          -2.46290        -0.47140         2.30210
H          -1.59750        -0.69630         2.92690
H          -3.04980         0.30480         2.79660
H          -3.06130        -1.37930         2.20480
C           1.50080        -0.05190         0.02670
H           1.95890         0.93370         0.13660
H           1.64630        -0.60350         0.95520
H           1.99640        -0.59660        -0.78010

