#Put Keywords Here, check Charge and Multiplicity.

 Dimethyl anthranilate

0  1
C          -0.45390         0.64810        -1.07440
C          -1.86440         0.64060        -1.09920
C          -2.66610         0.02820        -0.08650
N          -2.11520        -0.65610         1.01850
H          -2.79610        -0.59540         1.78010
C          -4.07690         0.09340        -0.14480
H          -4.64570        -0.32240         0.59860
C          -4.72030         0.72150        -1.22130
H          -5.74170         0.75330        -1.26020
C          -3.95630         1.30390        -2.24190
H          -4.42360         1.75790        -3.03150
C          -2.55260         1.27110        -2.17390
H          -2.04020         1.72480        -2.93350
O           0.17480         1.16890        -1.99220
O           0.18790         0.13440        -0.13020
C           1.51130        -0.00670         0.04880
H           2.00100         0.96820         0.11240
H           1.68970        -0.54310         0.98050
H           1.95460        -0.58160        -0.76840
C          -1.90770        -2.09460         0.75500
H          -1.44470        -2.53960         1.63460
H          -2.86040        -2.59590         0.57130
H          -1.24600        -2.25500        -0.09930

