#Put Keywords Here, check Charge and Multiplicity.

 Methyl2-methylbutyrate

0  1
C          -0.41880         0.66840        -1.09640
C          -1.88720         0.71110        -1.11150
H          -2.22630        -0.33100        -1.12940
C          -2.48750         1.40700        -2.38430
H          -2.09200         0.90650        -3.27200
H          -2.15690         2.44870        -2.42040
C          -4.03060         1.38510        -2.51270
H          -4.49120         2.00850        -1.74610
H          -4.32210         1.78330        -3.48650
H          -4.40960         0.36460        -2.42550
O           0.24100         1.20670        -1.97990
O           0.14200         0.06230        -0.15790
C          -2.41000         1.35370         0.20910
H          -2.11850         2.40630         0.26550
H          -2.00940         0.83260         1.08340
H          -3.49520         1.28320         0.27400
C           1.44430        -0.09110         0.11800
H           1.93470         0.87610         0.25660
H           1.53030        -0.65940         1.04330
H           1.94900        -0.64320        -0.67900

