#Put Keywords Here, check Charge and Multiplicity.

 Methyl3-(methylthio)propionate

0  1
C          -2.17580         3.42560         0.11880
C          -1.86710         2.00960        -0.00110
H          -2.30470         1.63000        -0.92940
H          -2.32150         1.45800         0.82790
C          -0.34020         1.74150        -0.00420
H           0.11180         2.18850        -0.89390
H           0.11630         2.18020         0.88720
O          -2.80650         3.82170         1.09420
O          -1.78930         4.20540        -0.77590
S           0.04070        -0.04190        -0.01270
C           1.86030        -0.05970        -0.00180
H           2.21020        -1.09140         0.00000
H           2.23030         0.44830         0.88930
H           2.23680         0.44800        -0.88990
C          -1.91290         5.53620        -0.86220
H          -2.96270         5.83040        -0.90510
H          -1.42350         5.86350        -1.77750
H          -1.43290         6.03150        -0.01630

