#Put Keywords Here, check Charge and Multiplicity.

 Methyl myristate

0  1
C          -0.37870         0.56770        -1.16080
C          -1.82880         0.55210        -1.16750
H          -2.20330         1.01160        -2.08810
H          -2.17130        -0.48590        -1.15070
C          -2.41990         1.30840         0.05120
H          -2.02280         2.32780         0.06690
H          -2.10800         0.80800         0.97280
C          -3.96880         1.37530         0.01540
H          -4.27880         1.88810        -0.90000
H          -4.37000         0.35830        -0.00800
C          -4.55660         2.12550         1.24010
H          -4.13850         3.13580         1.27260
H          -4.25890         1.60310         2.15370
C          -6.10300         2.21560         1.18410
H          -6.39640         2.73470         0.26750
H          -6.51660         1.20400         1.15080
C          -6.70240         2.96660         2.40230
H          -6.40790         2.44790         3.31900
H          -6.28860         3.97860         2.43480
C          -8.25120         3.05650         2.34780
H          -8.66550         2.04470         2.31370
H          -8.54560         3.57620         1.43140
C          -8.84690         3.80650         3.56840
H          -8.43290         4.81790         3.60100
H          -8.55140         3.28680         4.48390
C         -10.39460         3.89710         3.51800
H         -10.69260         4.41820         2.60420
H         -10.81100         2.88670         3.48660
C         -10.98590         4.64770         4.74140
H         -10.57180         5.65980         4.77470
H         -10.69010         4.12760         5.65740
C         -12.53470         4.73860         4.69160
H         -12.83190         5.25950         3.77620
H         -12.95030         3.72670         4.65940
C         -13.12900         5.48850         5.91340
H         -12.83930         4.97090         6.83230
H         -12.72100         6.50250         5.94980
C         -14.67000         5.57790         5.86190
H         -15.03700         6.11190         6.73940
H         -15.10820         4.57830         5.85250
H         -14.98940         6.11510         4.96710
O           0.21930         1.12050        -2.07720
O           0.22090         0.02460        -0.21420
C           1.53360        -0.05320         0.03530
H           1.96940         0.94430         0.14100
H           1.67340        -0.59630         0.97150
H           2.04590        -0.59290        -0.76560

