#Put Keywords Here, check Charge and Multiplicity.

 240

0  1
O           1.24620        -0.11150         0.00000
C          -0.66290         1.16880         0.00000
C           0.01800         2.41270         0.00000
C          -2.08070         1.18490         0.00000
C          -0.69230         3.62700         0.00000
C          -2.79080         2.40030         0.00000
C          -2.09650         3.62220         0.00000
C           0.02510        -0.04120         0.00000
H           1.04040         2.45160         0.00000
H          -2.61460         0.31090         0.00000
H          -0.18330         4.51450         0.00000
H          -3.81400         2.39600         0.00000
H          -2.61020         4.50390         0.00000
H          -0.47090        -0.90050         0.00000

