#Put Keywords Here, check Charge and Multiplicity.

 Methyl 2-nonenoate

0  1
C          -0.43560         0.61230        -1.09950
C          -1.79590         0.59870        -1.09270
H          -2.25970         1.07290        -1.83580
C          -2.55860         0.00260        -0.15540
H          -2.12320        -0.49560         0.58990
C          -4.01300         0.03510        -0.14920
H          -4.39620         0.51390        -1.05490
H          -4.37830        -0.99440        -0.14220
C          -4.58100         0.78030         1.08990
H          -4.17640         1.79590         1.11280
H          -4.27180         0.26710         2.00590
C          -6.12990         0.85480         1.04240
H          -6.53620        -0.16060         1.02540
H          -6.41100         1.35080         0.11090
C          -6.76580         1.61880         2.23420
H          -6.36540         2.63440         2.27860
H          -6.48380         1.11410         3.16260
C          -8.31830         1.68170         2.17310
H          -8.67740         2.17560         3.08000
H          -8.72120         0.66630         2.17450
C          -8.89680         2.43730         0.95360
H          -9.97820         2.53110         1.06110
H          -8.69070         1.89880         0.02800
H          -8.46730         3.43620         0.88360
O           0.13680         1.16920        -2.03140
O           0.20550         0.08480        -0.16710
C           1.52290        -0.01880         0.02980
H           1.98150         0.96960         0.10940
H           1.68950        -0.55390         0.96400
H           1.98960        -0.58240        -0.78120

