#Put Keywords Here, check Charge and Multiplicity.

 Methyl 2-nonynoate

0  1
C          -2.47550        -0.32010         0.37350
C          -1.26700        -0.08320         0.09580
C          -0.12000         0.13180        -0.15960
C           1.19940         0.35920        -0.43510
H           1.71410         0.52510         0.51400
H           1.60880        -0.54170        -0.89500
C           1.42230         1.57240        -1.37620
H           0.91600         1.39890        -2.33000
H           0.99500         2.47080        -0.91980
C           2.93340         1.81200        -1.63830
H           3.35660         0.92600        -2.11800
H           3.42110         1.94350        -0.67130
C           3.22680         3.04880        -2.53060
H           2.74000         2.90140        -3.49920
H           2.79130         3.94320        -2.07670
C           4.74120         3.29350        -2.79100
H           4.83510         4.14000        -3.47660
H           5.16840         2.41820        -3.28970
C           5.58640         3.60550        -1.53180
H           5.15380         4.43510        -0.97340
H           5.65370         2.73530        -0.87920
H           6.59880         3.87930        -1.82960
O          -2.72020        -1.27020         1.10560
O          -3.34740         0.42390        -0.11120
C          -4.67840         0.37230         0.02660
H          -5.07200        -0.57310        -0.35610
H          -5.12360         1.18630        -0.54560
H          -4.96660         0.49000         1.07460

