#Put Keywords Here, check Charge and Multiplicity.

 Methyl octanoate

0  1
C          -0.45150         0.60900        -1.13090
C          -1.90140         0.58350        -1.09880
H          -2.29690         1.03130        -2.01520
H          -2.23000        -0.46050        -1.07140
C          -2.48960         1.33320         0.12770
H          -2.19260         0.81020         1.04220
H          -2.08180         2.34810         0.16440
C          -4.03850         1.41600         0.07700
H          -4.33510         1.93760        -0.83770
H          -4.45250         0.40380         0.04280
C          -4.63770         2.16650         1.29430
H          -4.22680         3.18040         1.32660
H          -4.34650         1.65000         2.21400
C          -6.18500         2.24870         1.22390
H          -6.47310         2.76700         0.30440
H          -6.59390         1.23470         1.18710
C          -6.79420         2.99590         2.43720
H          -6.51180         2.48070         3.35910
H          -6.39310         4.01210         2.47620
C          -8.33390         3.07300         2.36420
H          -8.71750         3.60490         3.23600
H          -8.76420         2.06960         2.34980
H          -8.64540         3.60670         1.46410
O           0.12690         1.15360        -2.06520
O           0.16590         0.06100        -0.19950
C           1.47970        -0.03330         0.02730
H           1.93380         0.95410         0.12460
H           1.61920        -0.57060         0.96280
H           1.97750        -0.58900        -0.76840

