#Put Keywords Here, check Charge and Multiplicity.

 Methyl 2-octynoate

0  1
C           0.71470         3.17520         5.77110
C           0.32960         2.63120         4.69490
C          -0.04690         2.09930         3.69190
C          -0.48950         1.47360         2.55570
H          -0.13170         0.44200         2.57460
H          -1.58120         1.45880         2.57940
C          -0.00540         2.16980         1.25730
H          -0.36380         3.20400         1.24680
H           1.08910         2.18480         1.24210
C          -0.51040         1.45580        -0.02780
H          -1.60460         1.43920        -0.02020
H          -0.15360         0.42130        -0.02490
C          -0.02560         2.15290        -1.32620
H           1.06780         2.16960        -1.34300
H          -0.38210         3.18670        -1.33820
C          -0.52710         1.44400        -2.60360
H          -0.16020         1.97110        -3.48560
H          -1.61780         1.43690        -2.63020
H          -0.16270         0.41610        -2.63490
O           0.36000         2.66460         6.82680
O           1.42780         4.19200         5.71180
C           1.93910         4.91610         6.71720
H           1.14400         5.33210         7.33990
H           2.51510         5.73920         6.29620
H           2.60360         4.30820         7.33510

