#Put Keywords Here, check Charge and Multiplicity.

 Methyl phenylacetate

0  1
C          -0.50200         0.64620        -1.08580
C          -1.95420         0.63580        -1.05100
H          -2.36130         1.20630        -1.89240
H          -2.28260         1.15610        -0.14730
O           0.06950         1.18270        -2.02860
O           0.13040         0.12080        -0.14700
C          -2.50530        -0.74690        -1.08520
C          -2.68290        -1.41970        -2.31760
H          -2.43910        -0.95700        -3.19770
C          -3.19920        -2.72830        -2.35260
H          -3.32450        -3.20430        -3.24820
C          -3.54250        -3.38280        -1.15680
H          -3.91400        -4.33430        -1.18270
C          -3.36840        -2.72850         0.07510
H          -3.61310        -3.20570         0.94480
C          -2.85640        -1.41780         0.11120
H          -2.73730        -0.95620         1.01670
C           1.45180        -0.00860         0.03430
H           1.93690         0.96760         0.10770
H           1.61920        -0.54910         0.96540
H           1.90580        -0.57540        -0.78200

