#Put Keywords Here, check Charge and Multiplicity.

 Methyl Sulfide

0  1
S          -0.05040        -0.07130         0.00000
C          -0.56390         1.67280         0.00000
H          -1.65220         1.72150         0.00000
H          -0.18040         2.17160        -0.89070
H          -0.18040         2.17160         0.89070
C           1.76500         0.02600         0.00000
H           2.17380        -0.98390         0.00000
H           2.10760         0.55380         0.89070
H           2.10760         0.55380        -0.89070

