#Put Keywords Here, check Charge and Multiplicity.

 8785

0  1
O           0.50580         0.39840        -0.75260
O           1.47640         0.26490         1.14910
C          -1.56120         0.91710        -1.62280
C          -0.80560         0.19940        -0.56650
C          -1.86780         0.28670        -2.85190
C          -1.99110         2.24990        -1.42210
C          -2.59940         0.96340        -3.84520
C          -2.72270         2.92800        -2.41410
C          -3.02760         2.28420        -3.62570
C           1.42180        -0.03660        -0.03690
C           2.43900        -0.88420        -0.61140
H          -1.02150        -0.87270        -0.60790
H          -1.11390         0.55170         0.42280
H          -1.56370        -0.67250        -3.03500
H          -1.77780         2.73960        -0.54990
H          -2.82390         0.49310        -4.72530
H          -3.03660         3.88790        -2.25180
H          -3.56290         2.77400        -4.34380
H           2.03850        -1.44900        -1.45770
H           2.80250        -1.59970         0.12930
H           3.27470        -0.27430        -0.95910

