#Put Keywords Here, check Charge and Multiplicity.

 3-(Methylthio)propionaldehyde

0  1
C          -2.14550         3.45620         0.00100
H          -1.85920         4.01940        -0.76520
C          -1.85490         2.03670         0.00160
H          -2.30820         1.59010        -0.88750
H          -2.30430         1.55470         0.87440
C          -0.33110         1.76390         0.00450
H           0.12420         2.20440         0.89390
H           0.12820         2.20340        -0.88350
O          -2.75370         3.99030         0.91660
S           0.03230        -0.02200         0.00340
C           1.85170        -0.07280         0.00090
H           2.17820        -1.11140         0.00040
H           2.24020         0.42450         0.88940
H           2.23780         0.42450        -0.88880

