#Put Keywords Here, check Charge and Multiplicity.

 Methyl valerate

0  1
C          -0.48300         0.60890        -1.10120
C          -1.93500         0.59580        -1.07640
H          -2.32050         1.05660        -1.99100
H          -2.27500        -0.44320        -1.06310
C          -2.52910         1.34520         0.14780
H          -2.23290         0.82430         1.06330
H          -2.12000         2.35940         0.18270
C          -4.07870         1.43420         0.10070
H          -4.50350         0.42650         0.07060
H          -4.38440         1.95870        -0.80920
C          -4.67190         2.18270         1.31500
H          -4.29110         3.20540         1.35420
H          -5.76020         2.22040         1.23130
H          -4.41170         1.66990         2.24330
O           0.09440         1.15000        -2.03830
O           0.14320         0.05940        -0.17140
C           1.46540        -0.02930         0.02800
H           1.91610         0.96240         0.11030
H           1.63940        -0.56550         0.96060
H           1.94820        -0.57940        -0.78280

