#Put Keywords Here, check Charge and Multiplicity.

 Myristaldehyde

0  1
C           7.55990         6.92090        -3.22160
H           6.98170         7.35310        -2.53920
C           7.81030         5.49530        -3.15920
H           8.53580         5.21260        -3.92650
H           8.25130         5.26540        -2.18590
C           6.51390         4.66440        -3.35480
H           5.79420         4.93710        -2.57590
H           6.07600         4.91420        -4.32670
C           6.77060         3.13380        -3.29340
H           7.48450         2.85930        -4.07720
H           7.21380         2.88610        -2.32340
C           5.46770         2.31050        -3.48130
H           4.75610         2.58740        -2.69740
H           5.02490         2.56260        -4.44960
C           5.71260         0.77860        -3.42180
H           6.42410         0.50050        -4.20500
H           6.15390         0.52490        -2.45340
C           4.40690        -0.03820        -3.61200
H           3.96530         0.21630        -4.58010
H           3.69520         0.24040        -2.82900
C           4.64820        -1.57040        -3.55380
H           5.08960        -1.82540        -2.58590
H           5.35970        -1.84930        -4.33660
C           3.33620        -2.37750        -3.74520
H           2.62800        -2.09270        -2.96220
H           2.89810        -2.11660        -4.71270
C           3.56460        -3.91070        -3.68910
H           4.27430        -4.19250        -4.47200
H           4.00420        -4.16860        -2.72140
C           2.25510        -4.72070        -3.88010
H           1.54430        -4.44030        -3.09740
H           1.81440        -4.46420        -4.84770
C           2.49490        -6.25410        -3.82210
H           3.20490        -6.53520        -4.60490
H           2.93480        -6.51130        -2.85450
C           1.18950        -7.07030        -4.01240
H           0.74440        -6.82400        -4.98010
H           0.47450        -6.80010        -3.23070
C           1.42390        -8.59720        -3.95530
H           0.47490        -9.11950        -4.09460
H           1.84090        -8.88440        -2.98750
H           2.11200        -8.90850        -4.74450
O           8.04990         7.61910        -4.09700

