#Put Keywords Here, check Charge and Multiplicity.

 Myristic acid

0  1
C          -2.55020        -6.88430         2.55940
C          -2.62290        -5.43430         2.53830
H          -3.66920        -5.11510         2.52390
H          -2.17610        -5.04360         3.45680
C          -1.89650        -4.83750         1.30350
H          -0.84770        -5.15000         1.31870
H          -2.35920        -5.24150         0.39770
C          -1.96080        -3.28610         1.25640
H          -3.01020        -2.97630         1.21750
H          -1.51580        -2.88400         2.17220
C          -1.20960        -2.70750         0.02700
H          -0.16450        -3.02900         0.06720
H          -1.65830        -3.11500        -0.88400
C          -1.25820        -1.15740        -0.03470
H          -2.30340        -0.83460        -0.07310
H          -0.80880        -0.75040         0.87630
C          -0.50690        -0.58850        -1.26760
H          -0.95480        -0.99800        -2.17760
H           0.53750        -0.91120        -1.22740
C          -0.55670         0.96060        -1.33140
H          -0.10820         1.36950        -0.42140
H          -1.60140         1.28240        -1.36960
C           0.19520         1.52090        -2.56730
H           1.23790         1.19580        -2.52560
H          -0.25520         1.10810        -3.47370
C           0.15050         3.06960        -2.64050
H          -0.89290         3.39430        -2.68180
H           0.60070         3.48220        -1.73340
C           0.90160         3.63680        -3.87610
H           1.94630         3.31470        -3.83720
H           0.45270         3.22680        -4.78550
C           0.85040         5.18730        -3.93920
H          -0.19380         5.51080        -3.97920
H           1.30010         5.59860        -3.03070
C           1.59950         5.75990        -5.17190
H           1.15330         5.35790        -6.08570
H           2.64630         5.44570        -5.13770
C           1.55150         7.30270        -5.23930
H           2.09210         7.64750        -6.12270
H           2.01710         7.73890        -4.35240
H           0.51800         7.65070        -5.30420
O          -3.55940        -7.56630         2.46760
O          -1.46970        -7.45590         2.65650
H          -1.42730        -8.33460         2.63900

