#Put Keywords Here, check Charge and Multiplicity.

 Neryl acetate

0  1
C          -0.15660         0.16470         0.08310
C          -0.73970        -0.92640         0.83210
H          -0.24420        -1.00260         1.80180
H          -1.81090        -0.77950         1.00450
H          -0.60580        -1.86510         0.29160
O          -0.86250         1.11860        -0.22610
O           1.05610         0.11340        -0.21440
C           1.85160         1.09320        -0.67820
H           1.47840         1.49930        -1.62190
H           1.85960         1.91370         0.04900
C           3.21190         0.61190        -0.84910
H           3.83450         0.88280        -0.12200
C           3.70120        -0.14680        -1.86060
C           5.12620        -0.49300        -1.86010
H           5.62020        -0.01370        -2.70610
H           5.65470        -0.17300        -0.95880
H           5.25130        -1.57350        -1.94250
C           2.88290        -0.66450        -2.97430
H           1.82030        -0.49640        -2.79790
H           3.00480        -1.75070        -3.01410
C           3.25130        -0.08160        -4.37270
H           4.20420        -0.51620        -4.69220
H           3.42070         0.99460        -4.30930
C           2.25070        -0.38720        -5.39330
H           2.43500        -1.20580        -5.92720
C           1.11430         0.29860        -5.66480
C           0.20910        -0.15960        -6.72210
H           0.11690         0.61140        -7.49140
H           0.54140        -1.07700        -7.21420
H          -0.78160        -0.35490        -6.30440
C           0.68970         1.51350        -4.96630
H          -0.30960         1.37060        -4.54930
H           1.33770         1.80610        -4.14380
H           0.65340         2.34700        -5.67230

