#Put Keywords Here, check Charge and Multiplicity.

 17355

0  1
O          -0.70050        -1.04970         0.04380
C           2.36690        -0.16910         0.15770
C           1.07890         0.08070         0.98640
C           3.58580        -0.05960         1.00650
C          -0.11540         0.01990         0.15790
C           4.23780         1.18540         1.17660
C           4.09360        -1.19160         1.68730
C           5.36890         1.29480         2.00870
C           5.22460        -1.08080         2.51900
C          -0.63310         1.17460        -0.54900
C           5.86400         0.16170         2.67930
H           2.41990         0.55370        -0.66260
H           2.31830        -1.16360        -0.29880
H           1.13510         1.05830         1.47540
H           1.01290        -0.67270         1.77810
H           3.88570         2.02280         0.70370
H           3.63550        -2.10220         1.58960
H           5.82750         2.19930         2.13270
H           5.57780        -1.90210         3.01330
H          -1.12840         0.87040        -1.47320
H           0.16790         1.86950        -0.80900
H          -1.35790         1.69500         0.07840
H           6.68350         0.24190         3.28530

