#Put Keywords Here, check Charge and Multiplicity.

 Neryl butyrate

0  1
C          -0.07200        -0.04170         0.09840
C          -0.49030        -1.38000         0.49030
H          -1.54090        -1.52890         0.21820
H           0.10020        -2.10890        -0.07340
C          -0.33530        -1.65960         2.01300
H           0.72540        -1.64470         2.27800
H          -0.83880        -0.87690         2.58900
C          -0.92450        -3.02660         2.44150
H          -0.43050        -3.84120         1.90810
H          -0.77510        -3.17360         3.51350
H          -1.99690        -3.06740         2.23510
O          -0.91720         0.73170        -0.34130
O           1.13280         0.28950         0.19610
C           1.67470         1.51690         0.07140
H           1.44220         1.95340        -0.90280
H           1.22470         2.17460         0.82250
C           3.11600         1.49650         0.27490
H           3.40950         1.80250         1.17660
C           4.06830         1.11730        -0.61260
C           5.48280         1.20610        -0.22580
H           5.99780         1.93860        -0.84890
H           5.63730         1.50610         0.81320
H           5.96800         0.23850        -0.35590
C           3.77610         0.59830        -1.96290
H           2.70900         0.41160        -2.10160
H           4.25300        -0.38280        -2.06040
C           4.28870         1.51390        -3.11710
H           5.37720         1.42680        -3.16870
H           4.08490         2.56530        -2.90460
C           3.74970         1.13410        -4.42110
H           4.32820         0.51900        -4.95100
C           2.56250         1.50500        -4.95850
C           2.15990         1.00330        -6.27610
H           2.02830         1.83730        -6.96900
H           2.88200         0.31620        -6.72310
H           1.21050         0.46840        -6.19710
C           1.60550         2.40220        -4.30730
H           0.63350         1.91320        -4.22100
H           1.89020         2.71230        -3.30500
H           1.48970         3.30720        -4.90720

