#Put Keywords Here, check Charge and Multiplicity.

 Neryl isovalerate

0  1
C          -0.03120         0.00580        -0.00820
C          -0.30100        -1.29810         0.57720
H           0.27450        -2.03710         0.01310
H          -1.35970        -1.54370         0.44220
C           0.05210        -1.43740         2.09430
H           1.13830        -1.34110         2.19530
C          -0.33350        -2.84830         2.62930
H           0.16470        -3.62630         2.04700
H          -0.02560        -2.95920         3.67200
H          -1.41370        -3.00660         2.57040
C          -0.59440        -0.33890         2.98470
H          -1.68360        -0.37240         2.91310
H          -0.30710        -0.48050         4.02980
H          -0.25110         0.65100         2.67790
O          -0.97440         0.66570        -0.43290
O           1.14400         0.43020        -0.07600
C           1.56590         1.68740        -0.31000
H           1.17130         2.06460        -1.25570
H           1.16880         2.33660         0.47710
C           3.01870         1.78790        -0.30690
H           3.40550         2.17180         0.52630
C           3.87120         1.42120        -1.29520
C           5.31380         1.63490        -1.11970
H           5.67780         2.35840        -1.85110
H           5.58280         2.01790        -0.13260
H           5.85390         0.69820        -1.26220
C           3.43840         0.79930        -2.56030
H           2.38050         0.53010        -2.54100
H           3.97150        -0.14960        -2.67220
C           3.71760         1.67760        -3.81840
H           4.79280         1.65990        -4.01630
H           3.46650         2.72330        -3.63370
C           3.03790         1.18020        -5.00910
H           3.58470         0.57420        -5.57960
C           1.76360         1.43410        -5.39200
C           1.22550         0.82260        -6.61210
H           0.94060         1.59980        -7.32350
H           1.93370         0.15830        -7.11360
H           0.34120         0.23180        -6.36910
C           0.83850         2.30690        -4.66200
H          -0.07360         1.75680        -4.41540
H           1.23280         2.69960        -3.72610
H           0.57310         3.16260        -5.28930

