#Put Keywords Here, check Charge and Multiplicity.

 Dihydro-5-pentyl-2(3H)-furanone

0  1
O          -0.47280         0.69290        -0.45210
C           0.14560         0.25270         0.51090
C          -0.67680        -0.36020         1.50990
H          -0.47670         0.04800         2.50310
H          -0.52950        -1.44350         1.50530
C          -2.07780         0.02550         1.01370
H          -2.76250        -0.82630         1.03640
H          -2.49020         0.82660         1.63390
C          -1.79960         0.54760        -0.41690
H          -2.26920         1.52670        -0.55310
O           1.36400         0.30890         0.58550
C          -2.29440        -0.42480        -1.52500
H          -1.81160        -1.39760        -1.38730
H          -3.37360        -0.56720        -1.41200
C          -2.01500         0.08950        -2.96130
H          -0.94960         0.31470        -3.05890
H          -2.57650         1.01490        -3.11000
C          -2.40820        -0.94610        -4.04870
H          -3.47790        -1.16820        -3.98100
H          -1.86620        -1.87590        -3.85090
C          -2.06290        -0.50200        -5.49560
H          -2.25880        -1.34320        -6.16620
H          -0.99580        -0.27340        -5.55730
C          -2.87090         0.71570        -6.00150
H          -2.67790         0.87060        -7.06430
H          -2.57830         1.62080        -5.46660
H          -3.94060         0.54990        -5.86310

