#Put Keywords Here, check Charge and Multiplicity.

 2-Nonanone

0  1
C           1.10200        -0.91030         6.29980
H           0.87470        -0.18440         7.08300
H           1.82960        -1.61960         6.70020
H           0.18950        -1.45230         6.04680
C           1.61350        -0.25220         5.11530
C           2.52660        -0.91430         4.19430
H           2.40560        -0.49630         3.18870
H           2.28000        -1.97810         4.13230
C           4.00250        -0.74210         4.64480
H           4.24090         0.32650         4.64920
H           4.12010        -1.11850         5.66510
C           5.02690        -1.48040         3.73720
H           4.81720        -2.55400         3.75130
H           4.91560        -1.12570         2.70810
C           6.48540        -1.23240         4.20960
H           6.59770        -1.61800         5.22580
H           6.65560        -0.15380         4.23520
C           7.55660        -1.89750         3.30190
H           7.37910        -2.97730         3.29540
H           7.43950        -1.53830         2.27380
C           9.02070        -1.65850         3.76830
H           9.68060        -2.22140         3.10370
H           9.15070        -2.05590         4.77810
C           9.47890        -0.18060         3.75270
H           9.29110         0.27270         2.77870
H           8.95680         0.39500         4.51750
H          10.54930        -0.12810         3.95670
O           1.26680         0.89870         4.88440

