#Put Keywords Here, check Charge and Multiplicity.

 Nonyl alcohol

0  1
C           0.28460        -0.03760         0.39130
H           0.01000        -1.01900         0.00110
H          -0.54600         0.65380         0.23980
C           0.63130        -0.14190         1.89280
H           1.48530        -0.81960         1.99990
H           0.93400         0.84790         2.25270
C          -0.54380        -0.65760         2.76860
H          -0.88310        -1.62200         2.38010
H          -1.37840         0.04950         2.71000
C          -0.10830        -0.82340         4.24960
H           0.17290         0.15650         4.64530
H           0.77200        -1.47010         4.27480
C          -1.21110        -1.43580         5.15360
H          -2.09600        -0.79220         5.10000
H          -1.49250        -2.42050         4.76900
C          -0.80500        -1.56810         6.65040
H          -1.69170        -1.89310         7.20510
H          -0.52180        -0.58200         7.02750
C           0.34790        -2.57480         6.93370
H           0.07680        -3.55370         6.52550
H           1.25760        -2.23440         6.43210
C           0.65510        -2.72880         8.44870
H          -0.22210        -3.13980         8.95650
H           0.86860        -1.74730         8.87660
C           1.86340        -3.65230         8.73020
H           2.04390        -3.70390         9.80640
H           2.76330        -3.26640         8.24430
H           1.66430        -4.66220         8.36040
O           1.42040         0.43950        -0.32480
H           1.14130         0.46660        -1.26320

