#Put Keywords Here, check Charge and Multiplicity.

 4-Hydroxy octanoic acid

0  1
C          -1.18220         1.56200        -3.34650
H          -1.89860         1.81000        -2.55890
H          -1.40160         2.17490        -4.22630
C           0.27480         1.74510        -2.84540
H           0.26890         2.03450        -1.78850
C           1.08640         2.80060        -3.64870
H           1.06710         2.54230        -4.71270
H           0.59660         3.77100        -3.52800
C           2.56270         2.92490        -3.18470
H           3.05640         1.95630        -3.30130
H           2.57910         3.19190        -2.12490
C           3.35590         3.98850        -3.98720
H           3.34100         3.72950        -5.05000
H           2.88000         4.96640        -3.86880
C           4.82790         4.09920        -3.53130
H           5.34510         4.85670        -4.12420
H           5.33980         3.14360        -3.66600
H           4.88030         4.38540        -2.47880
O           0.80610         0.52670        -2.94400
C          -1.24810         0.06690        -3.69990
H          -1.99110        -0.46190        -3.09520
H          -1.44290        -0.09440        -4.76440
C           0.07520        -0.35800        -3.36990
O           0.46090        -1.50910        -3.50540

