#Put Keywords Here, check Charge and Multiplicity.

 1-Octen-3-ol

0  1
C           0.73560        -0.85780        -0.09230
H           1.61080        -1.32380        -0.14960
H          -0.09140        -1.40730        -0.08540
C           0.65450         0.47880        -0.02400
H          -0.25360         0.88590         0.01970
C           1.81510         1.36070        -0.03590
H           2.68520         0.83580         0.37000
C           1.59830         2.66230         0.79120
H           0.76120         3.22570         0.36810
H           1.33540         2.39250         1.81760
C           2.84920         3.58380         0.83210
H           3.68410         3.02720         1.26290
H           3.11980         3.86770        -0.18810
C           2.62500         4.87530         1.65970
H           2.37320         4.60430         2.68860
H           1.78400         5.43220         1.23690
C           3.87650         5.79320         1.67260
H           4.13400         6.07010         0.64630
H           4.72460         5.25330         2.10490
C           3.65170         7.08680         2.48540
H           4.55650         7.69990         2.46600
H           3.41550         6.84690         3.52470
H           2.83020         7.66590         2.05680
O           2.08340         1.67840        -1.40050
H           2.93220         2.17010        -1.38970

