#Put Keywords Here, check Charge and Multiplicity.

 Octyl butyrate

0  1
C          -0.11400        -0.00900         0.21740
C          -0.54270        -0.23480         1.58540
H          -1.34830        -0.97660         1.60700
H           0.29360        -0.65040         2.15220
C          -1.04890         1.06420         2.26760
H          -1.80990         1.53160         1.63450
H          -0.21970         1.77100         2.38270
C          -1.66600         0.80120         3.65780
H          -1.99150         1.74440         4.09960
H          -0.92950         0.33870         4.31730
H          -2.53270         0.14130         3.57190
O          -0.71910        -0.57300        -0.68910
O           0.85870         0.74600        -0.00980
C           1.40700         1.06910        -1.19560
H           0.65180         1.54400        -1.83200
H           1.75820         0.15710        -1.68980
C           2.60630         2.03800        -1.03560
H           2.26930         2.95240        -0.54090
H           3.36480         1.56630        -0.40590
C           3.22380         2.39120        -2.41810
H           3.54550         1.46470        -2.90430
H           2.44700         2.84280        -3.04340
C           4.43340         3.36220        -2.36770
H           4.12150         4.29930        -1.89920
H           5.22350         2.92070        -1.75480
C           4.99040         3.65910        -3.78920
H           4.19380         4.09700        -4.39790
H           5.29400         2.71700        -4.25500
C           6.20380         4.62610        -3.79120
H           5.90360         5.57180        -3.33100
H           7.00460         4.19010        -3.18720
C           6.75560         4.91740        -5.21630
H           7.06780         3.98140        -5.68840
H           5.96820         5.36110        -5.83230
C           7.96350         5.88260        -5.19170
H           8.32100         6.06160        -6.20880
H           8.78020         5.45360        -4.60690
H           7.67560         6.83970        -4.75120

