#Put Keywords Here, check Charge and Multiplicity.

 Octyl formate

0  1
C           1.34300        -0.08980         0.00000
H           1.99730         0.65980         0.00000
O           1.76090        -1.23550         0.00000
O           0.11910         0.10890         0.00000
C          -0.49940         1.29940         0.00000
H          -0.20770         1.86820        -0.89050
H          -0.20770         1.86820         0.89050
C          -2.03750         1.11420         0.00000
H          -2.32670         0.54250        -0.88620
H          -2.32670         0.54250         0.88620
C          -2.78680         2.47500         0.00000
H          -2.48720         3.04390         0.88510
H          -2.48720         3.04390        -0.88510
C          -4.33420         2.33740         0.00000
H          -4.64410         1.77530        -0.88640
H          -4.64410         1.77530         0.88640
C          -5.04100         3.72240         0.00000
H          -4.72270         4.27990        -0.88620
H          -4.72270         4.27990         0.88620
C          -6.58940         3.62410         0.00000
H          -6.90820         3.06890        -0.88630
H          -6.90820         3.06890         0.88630
C          -7.28280         5.01350         0.00000
H          -6.97560         5.57690         0.88520
H          -6.97560         5.57690        -0.88520
C          -8.82390         4.90010         0.00000
H          -9.27240         5.89610         0.00000
H          -9.16540         4.36490         0.88920
H          -9.16540         4.36490        -0.88920

