#Put Keywords Here, check Charge and Multiplicity.

 Octyl octanoate

0  1
C          -0.31500         0.17990        -0.42200
C          -1.66030         0.48440         0.03460
H          -2.32200         0.61020        -0.82840
H          -2.03480        -0.36560         0.61340
C          -1.73100         1.77140         0.90300
H          -1.17760         1.60320         1.83110
H          -1.25390         2.59900         0.36930
C          -3.19150         2.17820         1.24630
H          -3.73420         2.35540         0.31270
H          -3.67830         1.35030         1.76880
C          -3.28200         3.45470         2.12520
H          -2.75800         3.27810         3.06890
H          -2.78330         4.27950         1.60830
C          -4.75220         3.85730         2.42490
H          -5.27250         4.03080         1.47880
H          -5.24830         3.02800         2.93710
C          -4.87170         5.13070         3.30200
H          -4.38710         5.97010         2.79630
H          -4.36030         4.96730         4.25420
C          -6.34150         5.51440         3.59270
H          -6.37480         6.41240         4.21170
H          -6.84890         4.70690         4.12440
H          -6.87500         5.71460         2.66120
O          -0.08890         0.18080        -1.62770
O           0.57520        -0.07570         0.41980
C           1.87680        -0.34810         0.21530
H           2.34650         0.49680        -0.29740
H           1.96690        -1.23410        -0.42100
C           2.62430        -0.60550         1.54940
H           2.55100         0.28740         2.17670
H           2.14430        -1.43670         2.07360
C           4.12080        -0.94570         1.30830
H           4.17570        -1.83120         0.66760
H           4.58540        -0.11200         0.77290
C           4.93900        -1.22100         2.60040
H           4.90880        -0.33730         3.24350
H           4.48580        -2.05350         3.14520
C           6.41740        -1.56700         2.26680
H           6.43550        -2.44550         1.61610
H           6.85930        -0.73120         1.71750
C           7.29810        -1.85890         3.51080
H           7.29680        -0.98270         4.16520
H           6.87080        -2.70000         4.06390
C           8.76630        -2.20080         3.12880
H           9.20650        -1.36440         2.57730
H           8.78080        -3.07940         2.47650
C           9.65370        -2.49360         4.36100
H          10.67160        -2.72710         4.03820
H           9.26070        -3.34740         4.91850
H           9.68850        -1.62280         5.02020

