#Put Keywords Here, check Charge and Multiplicity.

 Octyl isovalerate

0  1
C          -0.09470        -0.06990         0.00030
C          -0.34140        -1.36780         0.60590
H           0.23640        -2.10440         0.04060
H          -1.39670        -1.64060         0.49170
C           0.04240        -1.46910         2.11860
H           1.13070        -1.35690         2.19890
C          -0.61020        -0.36150         2.99800
H          -1.69770        -0.39200         2.91070
H          -0.33600        -0.49830         4.04640
H          -0.26220         0.62760         2.69450
C          -0.32070        -2.87760         2.66770
H           0.17700        -3.65460         2.08340
H          -0.00080        -2.97700         3.70650
H          -1.39940        -3.03870         2.61710
O          -1.04540         0.53840        -0.48090
O           1.06780         0.39540        -0.02470
C           1.47680         1.60620        -0.44290
H           0.98330         2.38030         0.15510
H           1.19540         1.73570        -1.49270
C           3.01180         1.77090        -0.31520
H           3.30660         1.65410         0.73060
H           3.50880         0.98980        -0.89590
C           3.46750         3.16510        -0.82990
H           3.15410         3.26800        -1.87240
H           2.95540         3.93500        -0.24670
C           4.99570         3.42810        -0.75160
H           5.31910         3.34970         0.28950
H           5.52080         2.66530        -1.33240
C           5.36770         4.83880        -1.30070
H           4.83510         5.59500        -0.71720
H           5.03130         4.91270        -2.33870
C           6.88820         5.15170        -1.24910
H           7.22710         5.08220        -0.21140
H           7.42280         4.39790        -1.83430
C           7.24450         6.56040        -1.80050
H           6.91490         6.64020        -2.84020
H           6.71880         7.32410        -1.22050
C           8.76040         6.85450        -1.74120
H           8.96370         7.84970        -2.13630
H           9.31130         6.12560        -2.33680
H           9.11470         6.81130        -0.71070

