#Put Keywords Here, check Charge and Multiplicity.

 Oleic acid

0  1
C           4.88230        -9.86230        -3.41970
C           4.52570        -8.54590        -3.91190
H           5.14520        -8.28540        -4.77560
H           3.48480        -8.56100        -4.24640
C           4.70890        -7.45860        -2.81880
H           5.75340        -7.45510        -2.49010
H           4.08270        -7.70070        -1.95430
C           4.33430        -6.03780        -3.31660
H           3.29140        -6.03610        -3.64840
H           4.96560        -5.78280        -4.17340
C           4.51600        -4.95840        -2.21480
H           3.87590        -5.20910        -1.36230
H           5.55550        -4.97190        -1.87340
C           4.16420        -3.53110        -2.71530
H           3.11840        -3.51800        -3.04180
H           4.79470        -3.28710        -3.57410
C           4.36570        -2.45300        -1.61660
H           5.39020        -2.51300        -1.23890
H           3.68170        -2.66950        -0.78930
C           4.11540        -1.00820        -2.12370
H           4.88470        -0.73660        -2.85260
H           3.15710        -0.97710        -2.64150
C           4.17040        -0.05920        -1.01950
H           5.06480         0.08750        -0.61220
C           3.14170         0.61890        -0.47790
H           3.35210         1.20270         0.29920
C           1.76320         0.60080        -0.93930
H           1.12160         1.01310        -0.15500
H           1.44440        -0.43080        -1.10090
C           1.56920         1.45520        -2.22380
H           1.72640         2.50480        -1.96360
H           2.31450         1.19070        -2.97830
C           0.16540         1.29220        -2.86220
H           0.03390         0.25260        -3.18140
H          -0.59990         1.51920        -2.11430
C          -0.02340         2.22540        -4.09020
H           0.13350         3.26310        -3.77860
H           0.73060         1.97990        -4.84510
C          -1.43450         2.09520        -4.72090
H          -2.18430         2.32170        -3.95710
H          -1.58070         1.06140        -5.04760
C          -1.64410         3.04540        -5.93010
H          -1.49010         4.07810        -5.60340
H          -0.89890         2.81700        -6.69790
C          -3.06340         2.91340        -6.54110
H          -3.22280         1.88350        -6.87220
H          -3.81120         3.14260        -5.77680
C          -3.27910         3.85880        -7.74230
H          -4.28810         3.72880        -8.13540
H          -2.56380         3.63510        -8.53570
H          -3.15570         4.89880        -7.43490
O           5.80910       -10.49020        -3.90960
O           4.26190       -10.36720        -2.49010
H           4.50790       -11.14320        -2.15510

