#Put Keywords Here, check Charge and Multiplicity.

 15-Hydroxypentadecanoic acid lactone

0  1
C          -0.13530         0.92230        -0.84590
C          -1.50010         1.40940        -1.00820
H          -1.74870         1.45880        -2.07210
H          -2.20130         0.70190        -0.56680
C          -1.67780         2.82070        -0.37180
H          -1.24090         2.80430         0.62770
H          -1.11980         3.55660        -0.96010
C          -3.15620         3.29140        -0.25030
H          -3.53090         3.56340        -1.24120
H          -3.75870         2.45930         0.12270
C          -3.31970         4.49700         0.72240
H          -2.81230         4.24670         1.65660
H          -2.81530         5.37120         0.30100
C          -4.79950         4.86750         1.04590
H          -5.20820         5.41870         0.19460
H          -5.38750         3.95480         1.12650
C          -4.96420         5.73020         2.34310
H          -5.31170         6.72630         2.05200
H          -3.99800         5.89750         2.82420
C          -5.95560         5.19730         3.42800
H          -6.97250         5.35050         3.05260
H          -5.84950         5.83300         4.31290
C          -5.84580         3.70960         3.88810
H          -6.50590         3.58600         4.75250
H          -6.28350         3.08460         3.10720
C          -4.42210         3.18690         4.28290
H          -4.39060         3.01300         5.36200
H          -3.67280         3.94890         4.07620
C          -4.01910         1.86740         3.55950
H          -4.35910         1.91860         2.52340
H          -4.53800         1.02950         4.03490
C          -2.48740         1.57970         3.54530
H          -2.15450         1.34000         4.55850
H          -1.96540         2.48420         3.22460
C          -2.10470         0.41800         2.58260
H          -2.65440         0.55340         1.65320
H          -2.43500        -0.52920         3.01880
C          -0.58560         0.31720         2.25130
H          -0.07710        -0.08840         3.13110
H          -0.17050         1.31230         2.08590
C          -0.26780        -0.58270         1.01400
H          -1.14300        -1.15490         0.69730
H           0.47920        -1.31740         1.32380
O           0.73220         1.41310        -1.55540
O           0.27550         0.05820        -0.04060

