#Put Keywords Here, check Charge and Multiplicity.

 4-Pentenoic acid

0  1
C           2.91520        -3.09940        -1.46840
C           1.81440        -2.17060        -1.30490
H           0.87710        -2.65760        -1.59170
H           1.97360        -1.32630        -1.98280
C           1.68090        -1.65770         0.15420
H           2.62480        -1.21260         0.48170
H           1.47930        -2.50750         0.81280
C           0.60280        -0.69520         0.30110
H          -0.29840        -1.03260         0.54820
C           0.75800         0.62030         0.10320
H          -0.01150         1.23610         0.21160
H           1.63590         1.00210        -0.15300
O           2.72140        -4.25190        -1.83000
O           4.06900        -2.74010        -1.25630
H           4.73500        -3.31410        -1.32010

