#Put Keywords Here, check Charge and Multiplicity.

 Phenethyl formate

0  1
C           1.28640        -0.05520         0.00000
H           1.94570         0.69080         0.00000
O           1.70190        -1.20260         0.00000
O           0.06190         0.14020         0.00000
C          -0.56840         1.32440         0.00000
H          -0.28080         1.89690         0.89040
H          -0.28080         1.89690        -0.89040
C          -2.10400         1.11630         0.00000
H          -2.38690         0.53060         0.87960
H          -2.38690         0.53060        -0.87960
C          -2.81390         2.42460         0.00000
C          -3.13330         3.07230         1.21800
H          -2.93280         2.62090         2.11260
C          -3.71580         4.35280         1.21730
H          -3.92320         4.81960         2.10230
C          -4.00310         4.99520         0.00000
H          -4.41790         5.92920         0.00000
C          -3.71580         4.35280        -1.21730
H          -3.92320         4.81960        -2.10230
C          -3.13330         3.07230        -1.21800
H          -2.93280         2.62100        -2.11260

