#Put Keywords Here, check Charge and Multiplicity.

 Phenethyl salicylate

0  1
C           0.17300        -0.05030        -0.03030
C           0.29390        -1.45030        -0.13340
C           1.54450        -2.12980        -0.03990
O           2.63140        -1.51670         0.13930
H           3.39260        -1.95920         0.19650
C           1.61260        -3.53640        -0.14490
H           2.51180        -4.01810        -0.07760
C           0.44930        -4.29520        -0.34300
H           0.50330        -5.31420        -0.41610
C          -0.79090        -3.65060        -0.44120
H          -1.64170        -4.19970        -0.58750
C          -0.86660        -2.25070        -0.33850
H          -1.79350        -1.82600        -0.41620
O          -0.93630         0.46760        -0.12660
O           1.17020         0.69360         0.16100
C           1.20860         2.03580         0.27990
H           0.80200         2.48360        -0.63360
H           0.57510         2.33470         1.12240
C           2.63570         2.59880         0.51200
H           3.28560         2.31030        -0.32000
H           3.05960         2.16600         1.42350
C           2.57290         4.08450         0.62680
C           2.66000         4.90390        -0.52510
H           2.84260         4.48980        -1.44210
C           2.47780         6.29690        -0.43340
H           2.52360         6.87530        -1.27520
C           2.22250         6.89390         0.81350
H           2.07760         7.90490         0.87830
C           2.16690         6.09830         1.97130
H           1.98660         6.53230         2.87930
C           2.34900         4.70530         1.88010
H           2.30270         4.14490         2.73420

