#Put Keywords Here, check Charge and Multiplicity.

 Phenylacetaldehyde

0  1
C           1.48480        -0.09340        -0.10060
H           1.96810        -0.82730         0.36040
C           0.12330        -0.28960        -0.54780
H          -0.27550         0.62370        -1.00070
H          -0.50880        -0.50100         0.31870
O           2.07440         0.96050        -0.28300
C           0.06940        -1.40890        -1.52310
C           0.24520        -1.16770        -2.90690
H           0.40190        -0.21790        -3.25250
C           0.21280        -2.22930        -3.82850
H           0.33770        -2.04160        -4.82540
C           0.01000        -3.54530        -3.37730
H          -0.01400        -4.31520        -4.04600
C          -0.15790        -3.80170        -2.00530
H          -0.30190        -4.75820        -1.67510
C          -0.12660        -2.74040        -1.08350
H          -0.24210        -2.94670        -0.08830

