#Put Keywords Here, check Charge and Multiplicity.

 Phenylacetaldehyde dimethylacetal

0  1
C          -0.36250         0.62130        -1.16140
H          -0.00590         1.65920        -1.16540
C          -1.91380         0.66580        -1.18830
H          -2.27470         1.15870        -0.28050
H          -2.29800        -0.35770        -1.15480
C          -2.45380         1.36480        -2.38920
C          -2.69650         2.75830        -2.36720
H          -2.53850         3.29790        -1.51190
C          -3.15080         3.42780        -3.51960
H          -3.31550         4.43580        -3.49260
C          -3.37520         2.70990        -4.70790
H          -3.69540         3.19610        -5.54560
C          -3.15820         1.32080        -4.74090
H          -3.32540         0.79710        -5.60260
C          -2.70850         0.65250        -3.58730
H          -2.56000        -0.35920        -3.63040
O           0.05350        -0.08870        -2.35220
O          -0.00290        -0.03780         0.07570
C           1.42900         0.01470        -2.75300
H           2.01280        -0.78560        -2.30110
H           1.47240        -0.11670        -3.83360
H           1.87490         0.98090        -2.50890
C           1.37520         0.02100         0.48290
H           1.94170        -0.79330         0.03300
H           1.41350        -0.11150         1.56360
H           1.84580         0.97610         0.24060

