#Put Keywords Here, check Charge and Multiplicity.

 1 - Phenyl - 3 - methyl - 3 - pentanol

0  1
C          -0.77170        -1.22610         0.06090
H          -0.17660        -1.92670         0.64900
H          -0.22950        -0.27690         0.06180
C          -0.91460        -1.73530        -1.40520
H          -1.53510        -1.00710        -1.93770
H          -1.46430        -2.68100        -1.39400
C           0.41670        -1.93820        -2.21700
C           1.33920        -3.03090        -1.57040
H           1.55960        -2.75330        -0.53840
H           0.79900        -3.98190        -1.54540
C           2.71230        -3.27250        -2.24620
H           3.27620        -2.34000        -2.32180
H           2.59200        -3.70340        -3.24080
H           3.28920        -3.97810        -1.64460
O           1.12070        -0.69220        -2.25030
H           0.50460        -0.05650        -2.67300
C           0.06080        -2.30880        -3.69020
H           0.95330        -2.34560        -4.31530
H          -0.43350        -3.28150        -3.72870
H          -0.60830        -1.56520        -4.12710
C          -2.08840        -1.05480         0.73820
C          -2.69750        -2.13980         1.41450
H          -2.24310        -3.05490         1.43880
C          -3.93300        -1.98120         2.07030
H          -4.35850        -2.77230         2.55850
C          -4.58330        -0.73580         2.05610
H          -5.47910        -0.61930         2.53690
C          -3.99660         0.35040         1.38220
H          -4.47140         1.25610         1.36920
C          -2.75970         0.19210         0.72850
H          -2.35170         0.99610         0.24580

