#Put Keywords Here, check Charge and Multiplicity.

 3-Phenyl-l-propanol

0  1
C          -0.01140         0.21990         0.30310
H          -0.57830        -0.49320        -0.30000
H           0.55190        -0.32330         1.06540
C          -0.96880         1.23280         0.96960
H          -0.37440         1.94950         1.54510
H          -1.50040         1.78020         0.18470
C          -1.99840         0.54860         1.90700
H          -2.58430        -0.17910         1.33500
H          -1.46730        -0.01120         2.68450
C          -2.90260         1.55280         2.53050
C          -2.55990         2.16720         3.75930
H          -1.68860         1.91900         4.23660
C          -3.40410         3.13620         4.33540
H          -3.14530         3.57800         5.22000
C          -4.59900         3.50430         3.69200
H          -5.21190         4.20930         4.11160
C          -4.94880         2.90400         2.46940
H          -5.81320         3.17700         1.99720
C          -4.10660         1.93470         1.89070
H          -4.37200         1.51560         0.99490
O           0.91470         0.88820        -0.54670
H           1.46590         0.16600        -0.91310

