#Put Keywords Here, check Charge and Multiplicity.

 2-Phenylpropionaldehyde

0  1
C          -1.76840        -0.68460         1.52660
H          -2.12020        -1.25210         2.26420
C          -1.24460        -1.29850         0.31150
H          -0.76310        -0.49940        -0.26400
C          -0.12580        -2.31990         0.64870
H           0.34220        -2.67980        -0.27100
H           0.65140        -1.85510         1.26070
H          -0.53030        -3.17770         1.19210
O          -1.76030         0.52800         1.68740
C          -2.28350        -1.94100        -0.56540
C          -2.12650        -1.92570        -1.97630
H          -1.31410        -1.47060        -2.40150
C          -3.06830        -2.54160        -2.82400
H          -2.93420        -2.53010        -3.83800
C          -4.19570        -3.17830        -2.27930
H          -4.88420        -3.61940        -2.89450
C          -4.36810        -3.21530        -0.88570
H          -5.18480        -3.68230        -0.48670
C          -3.41560        -2.61660        -0.03960
H          -3.56070        -2.68270         0.96860

