#Put Keywords Here, check Charge and Multiplicity.

 Hydrocinnamaldehyde

0  1
C           1.47770         0.03910        -0.01510
H           2.05060        -0.77010         0.03020
C           0.10200        -0.02860         0.42530
H          -0.39480         0.93270         0.25360
H          -0.40760        -0.78240        -0.18100
C          -0.01280        -0.40590         1.92760
H           0.47480        -1.37100         2.10210
H           0.52380         0.33450         2.53090
C          -1.43810        -0.47450         2.35790
C          -2.10000         0.67650         2.84900
H          -1.60170         1.56700         2.92410
C          -3.45420         0.61800         3.22950
H          -3.92430         1.45620         3.57700
C          -4.16540        -0.59020         3.12440
H          -5.15010        -0.63140         3.39930
C          -3.52120        -1.74010         2.63560
H          -4.04000        -2.61660         2.55140
C          -2.16700        -1.68350         2.25430
H          -1.71810        -2.52880         1.89220
O           1.96120         1.07450        -0.45080

