#Put Keywords Here, check Charge and Multiplicity.

 2-Phenylpropionaldehyde dimethyl acetal

0  1
C          -0.33040         0.48780        -1.14540
H           0.23490         1.42340        -1.05340
C          -1.85180         0.84330        -1.10260
H          -2.38140        -0.09990        -0.92940
C          -2.19890         1.75140         0.11240
H          -3.27830         1.92260         0.16320
H          -1.88810         1.27410         1.04470
H          -1.69460         2.71820         0.03640
C          -2.36460         1.44800        -2.37910
C          -3.38480         0.80010        -3.12140
H          -3.76340        -0.09880        -2.81030
C          -3.90580         1.37450        -4.29570
H          -4.65020         0.90060        -4.81140
C          -3.40620         2.60260        -4.76050
H          -3.78950         3.02150        -5.61250
C          -2.38030         3.25370        -4.05250
H          -2.01380         4.14750        -4.39250
C          -1.86420         2.67890        -2.87490
H          -1.11900         3.16890        -2.37950
O          -0.05500        -0.19070        -2.39250
O          -0.07280        -0.41530        -0.04390
C           1.24350         0.02890        -2.97100
H           2.03130        -0.39350        -2.34910
H           1.26840        -0.46550        -3.94120
H           1.43620         1.09100        -3.13190
C           1.17450        -0.25490         0.65190
H           2.02340        -0.49860         0.01250
H           1.18420        -0.93020         1.50930
H           1.27880         0.76410         1.02460

