#Put Keywords Here, check Charge and Multiplicity.

 3-Phenylpropionic acid

0  1
C           0.07920         0.11440         0.19970
C          -0.51260        -0.17020         1.49070
H          -1.34440        -0.87130         1.36920
H           0.24480        -0.65460         2.11240
C          -1.03000         1.11080         2.20210
H          -0.20460         1.81900         2.32970
H          -1.77600         1.60120         1.56770
O          -0.39210        -0.35030        -0.82870
O           1.06860         0.83490         0.11940
H           1.38190         1.08190        -0.66510
C          -1.62370         0.78900         3.52890
C          -2.99940         0.47720         3.64830
H          -3.60220         0.47810         2.82150
C          -3.55440         0.15010         4.90050
H          -4.54670        -0.08020         4.97400
C          -2.74460         0.13160         6.04850
H          -3.14850        -0.10800         6.95730
C          -1.37720         0.43750         5.94420
H          -0.78620         0.41660         6.77680
C          -0.81950         0.76440         4.69300
H           0.18010         0.97660         4.63460

