#Put Keywords Here, check Charge and Multiplicity.

 31272

0  1
O           0.76730         0.23000        -0.81020
O           1.52710         0.35090         1.19020
C          -0.90320         1.20780        -2.17880
C          -2.39340         1.64060        -2.23490
C          -0.51790         0.61010        -0.80350
C          -2.80570         2.24850        -3.59420
C           1.39580        -0.26480         0.13910
C           2.01130        -1.56130        -0.00890
H          -0.26700         2.07690        -2.37670
H          -0.71440         0.46050        -2.95690
H          -3.02730         0.77160        -2.04000
H          -2.58120         2.38290        -1.45500
H          -1.15010        -0.26030        -0.60230
H          -0.69300         1.36180        -0.02750
H          -2.66180         1.52240        -4.39590
H          -2.21350         3.13970        -3.80820
H          -3.85990         2.53030        -3.56530
H           1.45630        -2.16490        -0.73000
H           2.02400        -2.09150         0.94540
H           3.03490        -1.43820        -0.36270

