#Put Keywords Here, check Charge and Multiplicity.

 Piperidine

0  1
N          -0.46710         1.20710        -0.37390
H          -0.13560         1.55350         0.52960
C          -0.02270         2.16980        -1.40900
H           1.05900         2.31520        -1.34610
H          -0.50390         3.13020        -1.21730
C          -0.41110         1.67550        -2.82480
H          -0.01530         2.36370        -3.57660
H          -1.50140         1.66520        -2.91570
C           0.14200         0.25050        -3.08310
H           1.23260         0.29400        -3.15470
H          -0.23970        -0.12090        -4.03750
C          -0.26090        -0.73150        -1.95310
H           0.26030        -1.68120        -2.09580
H          -1.33620        -0.92250        -2.00940
C           0.07940        -0.15910        -0.55360
H           1.16190        -0.14870        -0.40320
H          -0.35680        -0.80450         0.21070

