#Put Keywords Here, check Charge and Multiplicity.

 Piperonal

0  1
C           1.72560         0.27180        -0.22210
H           2.67990        -0.00320        -0.20140
C           1.33140         1.38800        -0.95330
C          -0.02750         1.80270        -1.00040
H          -0.76270         1.29910        -0.50000
C          -0.37110         2.93680        -1.75190
O          -1.47490         3.48410        -1.93780
C          -1.31310         4.55750        -2.72500
H          -1.62670         5.46240        -2.19840
H          -1.90040         4.45030        -3.64040
O          -0.00200         4.60840        -3.00950
C           0.57930         3.65980        -2.44420
C           1.93090         3.28410        -2.42640
H           2.62940         3.82390        -2.94280
C           2.29850         2.14480        -1.67670
H           3.28560         1.87370        -1.66450
O           0.94070        -0.41460         0.41860

