#Put Keywords Here, check Charge and Multiplicity.

 Piperonyl acetate

0  1
C          -0.15770         0.16310         0.11690
C          -0.71330        -0.94400         0.85900
H          -0.22050        -1.01670         1.82930
H          -1.78670        -0.82100         1.02560
H          -0.55460        -1.87150         0.30740
O          -0.89450         1.07920        -0.23300
O           1.06380         0.14630        -0.13910
C           1.80240         1.04860        -0.80390
H           1.73660         2.02420        -0.31290
H           1.41560         1.16980        -1.82160
C           3.21770         0.61050        -0.85620
C           4.13400         0.99370         0.15870
H           3.83160         1.53390         0.97120
C           5.48550         0.63670         0.01840
O           6.47840         0.88420         0.73260
C           7.58160         0.37570         0.16060
H           8.06290        -0.34630         0.82470
H           8.28770         1.17520        -0.08240
O           7.16260        -0.23310        -0.95740
C           5.92830        -0.09270        -1.06810
C           5.04300        -0.53240        -2.06310
H           5.37860        -1.08420        -2.85510
C           3.68150        -0.17710        -1.94590
H           3.03020        -0.48870        -2.67150

