#Put Keywords Here, check Charge and Multiplicity.

 Propenyl guaethol

0  1
C          -2.06000         1.25760        -0.15630
C          -2.88140         2.12150         0.60850
H          -2.46130         2.85940         1.18130
C          -4.28270         1.98950         0.60740
H          -4.83690         2.62870         1.17960
C          -4.91920         0.99400        -0.16990
C          -4.10670         0.11640        -0.92510
C          -2.70260         0.25290        -0.92260
H          -2.15130        -0.38660        -1.49950
O          -4.61100        -0.80830        -1.61680
H          -5.48030        -0.94690        -1.62110
O          -6.19220         0.84020        -0.23720
C          -0.67030         1.44090        -0.13350
H          -0.33830         2.35030         0.10720
C           0.25810         0.49840        -0.38500
H          -0.02170        -0.43080        -0.60130
C           1.68170         0.77210        -0.35900
H           1.94410         1.43930        -1.18190
H           1.97080         1.23770         0.58700
H           2.24820        -0.15490        -0.47490
C          -7.20290         1.49060         0.36350
H          -7.12020         1.38060         1.44840
H          -7.17760         2.55600         0.11240
C          -8.55310         0.90410        -0.09180
H          -8.57650        -0.17260         0.09110
H          -9.36620         1.37210         0.46790
H          -8.70610         1.08870        -1.15820

