#Put Keywords Here, check Charge and Multiplicity.

 p-Isopropylbenzyl alcohol

0  1
C           5.58470        -1.45810        -0.44940
H           5.04950        -2.40620        -0.55760
H           6.35440        -1.42320        -1.22560
C           4.65210        -0.30930        -0.56590
C           5.08210         0.93700        -1.07500
H           6.04920         1.06240        -1.38600
C           4.19350         2.02730        -1.15760
H           4.54360         2.91370        -1.52730
C           2.84740         1.90590        -0.73530
C           2.42470         0.65520        -0.22680
H           1.46280         0.52410         0.09300
C           3.30990        -0.43440        -0.14240
H           2.96660        -1.31970         0.23500
C           1.90220         3.06780        -0.82510
H           2.42910         3.93170        -1.24380
C           1.40540         3.51840         0.57570
H           0.77990         4.40940         0.48810
H           0.82070         2.73590         1.06320
H           2.25760         3.76550         1.21240
C           0.72790         2.78080        -1.80050
H           0.09660         3.66650        -1.90640
H           0.10560         1.95660        -1.44460
H           1.11720         2.52310        -2.78850
O           6.21170        -1.42760         0.83030
H           6.78790        -2.22000         0.85280

