#Put Keywords Here, check Charge and Multiplicity.

 Isopropyl butyrate

0  1
C           0.39210        -0.84810         1.87420
C           0.00640        -1.19180         3.23100
H           0.89350        -1.47190         3.80620
H          -0.42140        -0.30860         3.71280
C          -1.00770        -2.36490         3.29080
H          -0.63030        -3.20420         2.69850
H          -1.96230        -2.04550         2.86360
C          -1.24750        -2.86490         4.73410
H          -1.63620        -2.05960         5.36180
H          -1.96910        -3.68500         4.73160
H          -0.31160        -3.22950         5.16490
O           1.51090        -1.16470         1.48430
O          -0.42230        -0.25380         1.13480
C          -0.28040         0.24640        -0.11260
H           0.12440        -0.52870        -0.77350
C           0.66670         1.47610        -0.16100
H           0.76380         1.84820        -1.18390
H           1.66170         1.20930         0.19900
H           0.27550         2.27850         0.46410
C          -1.68950         0.61600        -0.64200
H          -1.63190         0.96050        -1.67810
H          -2.34290        -0.25830        -0.60820
H          -2.13430         1.40530        -0.03300

