#Put Keywords Here, check Charge and Multiplicity.

 Isopropyl isobutyrate

0  1
C           0.38120        -0.84540         1.90260
C          -0.00890        -1.22080         3.25810
H           0.87810        -1.59590         3.78260
C          -1.04520        -2.37840         3.26650
H          -1.99700        -2.06690         2.83010
H          -0.66940        -3.23680         2.70660
H          -1.22550        -2.70110         4.29460
C          -0.52360        -0.00280         4.07480
H          -1.46040         0.38350         3.66560
H           0.21330         0.80290         4.07310
H          -0.69930        -0.30040         5.11110
O           1.50770        -1.14050         1.51410
O          -0.43520        -0.25130         1.16050
C          -0.29110         0.24170        -0.08820
H           0.11730        -0.54120        -0.73750
C           0.66340         1.46820        -0.14070
H           0.76760         1.83100        -1.16650
H           1.65900         1.20020         0.21940
H           0.27520         2.27950         0.47810
C          -1.69180         0.61090        -0.63770
H          -1.61020         0.94920        -1.67300
H          -2.34580        -0.26390        -0.61390
H          -2.14900         1.40690        -0.04390

