#Put Keywords Here, check Charge and Multiplicity.

 3-Propylidenephthalide

0  1
O           4.15050         4.31370         2.41120
C           3.77100         3.19380         2.10410
O           3.21820         2.90550         1.03940
C           2.89750         1.70330         0.93670
C           3.33440         1.05970         2.08320
C           3.34340        -0.26380         2.57660
H           2.99950        -1.05060         2.03190
C           3.85830        -0.51050         3.86880
H           3.84180        -1.46060         4.24600
C           4.39720         0.54070         4.64330
H           4.76850         0.34940         5.57500
C           4.43150         1.85300         4.13160
H           4.83720         2.61920         4.67480
C           3.88810         2.07500         2.85380
C           2.22640         1.29500        -0.16010
H           2.04910         1.98790        -0.85630
C           1.69250        -0.02170        -0.46970
H           1.62890        -0.66180         0.40380
H           0.66450         0.10570        -0.82140
C           2.48780        -0.73910        -1.58640
H           2.27080        -0.28330        -2.55530
H           2.19440        -1.79030        -1.62950
H           3.56540        -0.69130        -1.40890

