#Put Keywords Here, check Charge and Multiplicity.

 Propyl phenylacetate

0  1
C          -0.83470         1.56490        -1.07850
C          -1.08970         2.96940        -1.33890
H          -1.66230         3.09350        -2.26280
H          -0.12810         3.46620        -1.50200
O          -1.32970         0.72360        -1.82160
O          -0.09980         1.24800        -0.11650
C          -1.83330         3.61840        -0.22580
C          -3.24230         3.51060        -0.13060
H          -3.77140         2.98890        -0.83290
C          -3.94170         4.12100         0.92800
H          -4.95990         4.03940         0.98510
C          -3.23980         4.84670         1.90690
H          -3.74540         5.28880         2.67670
C          -1.84180         4.96500         1.82500
H          -1.32950         5.49300         2.53580
C          -1.14580         4.35950         0.76400
H          -0.12940         4.45990         0.72270
C           0.26990         0.02540         0.30180
H          -0.62070        -0.54740         0.57810
H           0.78320        -0.51030        -0.50320
C           1.19720         0.08760         1.53830
H           1.42550        -0.93610         1.84490
H           0.66290         0.56640         2.36100
C           2.53100         0.83450         1.30470
H           2.34620         1.89040         1.09470
H           3.14950         0.76150         2.20340
H           3.08070         0.39360         0.46930

