#Put Keywords Here, check Charge and Multiplicity.

 10315

0  1
O          -2.67740         2.25990        -0.08790
C          -2.92700         0.00460        -0.01770
C          -3.12020        -0.53400         1.42490
C          -2.07390         1.19220        -0.04560
C          -0.66250         1.18870        -0.01060
C          -3.87080        -1.88200         1.47750
C           0.10630        -0.00700         0.02310
C           0.05680         2.41650        -0.01550
C           1.51420         0.02240         0.02040
C           1.46250         2.44920        -0.00660
C           2.19210         1.25070         0.00060
H          -3.91850         0.24430        -0.42060
H          -2.52060        -0.77100        -0.66860
H          -3.68690         0.20170         2.00160
H          -2.15110        -0.66560         1.91090
H          -4.84480        -1.80220         0.99380
H          -4.02140        -2.17470         2.51740
H          -3.28780        -2.65760         0.97890
H          -0.33870        -0.92570         0.04780
H          -0.43360         3.31450        -0.02700
H           2.04350        -0.85230         0.03260
H           1.95330         3.34650        -0.00800
H           3.21390         1.27260        -0.00480

