#Put Keywords Here, check Charge and Multiplicity.

 Isopropyl phenylacetate

0  1
C           0.41710        -0.84150         1.92190
C          -0.04780        -1.24990         3.23180
H           0.74200        -1.76190         3.78890
H          -0.83920        -1.98920         3.08760
O           1.55950        -1.11340         1.56960
O          -0.39340        -0.26420         1.16900
C          -0.54280        -0.10200         4.03960
C           0.37080         0.76740         4.68070
H           1.37810         0.62610         4.57680
C          -0.08900         1.83360         5.47580
H           0.58110         2.44710         5.94700
C          -1.47010         2.05510         5.62320
H          -1.80460         2.83050         6.19870
C          -2.39240         1.21120         4.97840
H          -3.39770         1.37560         5.08370
C          -1.92990         0.14220         4.18890
H          -2.61510        -0.45440         3.72030
C          -0.26380         0.23050        -0.07540
H           0.14630        -0.54470        -0.73290
C           0.66870         1.47000        -0.12550
H           0.73830         1.84830        -1.14800
H           1.67210         1.20240         0.20940
H           0.28550         2.26230         0.52050
C          -1.68270         0.57910        -0.59210
H          -1.63670         0.93610        -1.62230
H          -2.31890        -0.30760        -0.56750
H          -2.14490         1.35160         0.02660

