#Put Keywords Here, check Charge and Multiplicity.

 Isopulegyl acetate

0  1
C           0.44110        -0.49490         0.76890
C          -0.56480        -1.51940         0.92210
H          -0.37290        -2.15590         1.78970
H          -1.54670        -1.05640         1.04140
H          -0.58090        -2.15290         0.03440
O           1.28730        -0.33680         1.64330
O           0.41420         0.18270        -0.27610
C           1.29090         1.06840        -0.78910
H           2.30620         0.68470        -0.61580
C           1.12360         1.06240        -2.34200
H           1.37870         0.06490        -2.71570
H           0.08360         1.25110        -2.61560
C           2.02860         2.10760        -3.05780
H           3.07390         1.80310        -2.92400
C           1.75320         2.13420        -4.58600
H           1.95030         1.15050        -5.01970
H           2.40600         2.85940        -5.07890
H           0.71340         2.40400        -4.78610
C           1.84950         3.51440        -2.41510
H           0.82860         3.87540        -2.57610
H           2.53360         4.22440        -2.88970
C           2.15050         3.47190        -0.89430
H           3.18650         3.15120        -0.75570
H           2.09530         4.48550        -0.49440
C           1.20680         2.49490        -0.11800
H           1.67020         2.34980         0.86570
C          -0.11960         3.10910         0.16630
C          -1.27170         2.71290        -0.40900
H          -2.13410         3.15670        -0.19770
H          -1.31130         1.97360        -1.05590
C          -0.18210         4.21360         1.13720
H           0.44040         4.00580         2.01020
H          -1.19240         4.40350         1.51130
H           0.17090         5.13460         0.67150

