#Put Keywords Here, check Charge and Multiplicity.

 Pyruvaldehyde

0  1
C          -0.76460        -1.15380         0.15360
H          -1.69560        -1.11290        -0.18940
C          -0.03180        -0.02080         0.26830
O          -0.54110         1.03440        -0.08830
C           1.33650         0.01650         0.75440
H           2.02130        -0.13130        -0.08240
H           1.55780         0.98280         1.21490
H           1.52130        -0.75720         1.50320
O          -0.33060        -2.25630         0.45370

