#Put Keywords Here, check Charge and Multiplicity.

 Salicylaldehyde

0  1
C           1.53130         0.19410        -0.13030
H           2.41160         0.47100        -0.49620
C           0.37760         0.91740        -0.43130
C           0.43060         2.07360        -1.25830
O           1.52040         2.49380        -1.73420
H           1.54430         3.21950        -2.23120
C          -0.74850         2.78960        -1.56310
H          -0.71160         3.61740        -2.16440
C          -1.98690         2.37900        -1.04410
H          -2.83690         2.90450        -1.26450
C          -2.05410         1.24590        -0.21850
H          -2.95560         0.95120         0.16270
C          -0.88590         0.52280         0.08180
H          -0.97270        -0.29910         0.68590
O           1.53140        -0.79970         0.58330

