#Put Keywords Here, check Charge and Multiplicity.

 Skatole

0  1
N          -1.97660         0.90470         0.34290
H          -2.67580         1.57860         0.37950
C          -0.65500         1.14130         0.43300
H          -0.23480         2.06670         0.54980
C           0.04660        -0.06410         0.33880
C           1.51130        -0.24170         0.38280
H           1.91090        -0.19030        -0.63180
H           1.97330         0.54130         0.98760
H           1.76350        -1.21090         0.81810
C          -0.92870        -1.04790         0.18080
C          -0.83560        -2.44300         0.02770
H           0.07210        -2.90950         0.01490
C          -2.02780        -3.18650        -0.10850
H          -1.98140        -4.20270        -0.21700
C          -3.28510        -2.54150        -0.09610
H          -4.13990        -3.09290        -0.19500
C          -3.36650        -1.14070         0.05290
H          -4.27450        -0.66910         0.06080
C          -2.17130        -0.41300         0.19080

