#Put Keywords Here, check Charge and Multiplicity.

 p-menth-1-en-8-yl-formate

0  1
O          -0.11330         1.10170         0.80280
C           0.24510         0.03270         0.28770
H          -0.12360        -0.29290        -0.57340
C          -3.48170         2.61300        -0.25100
H          -3.30360         2.87600        -1.29770
H          -3.37780         3.52240         0.33730
C          -2.43980         1.52330         0.20140
H          -2.38900         0.83360        -0.64980
C          -2.97240         0.63760         1.39580
H          -3.15700        -0.37960         1.03100
H          -2.23240         0.54600         2.19330
C          -4.30170         1.14760         2.01880
H          -4.69140         0.38060         2.69610
H          -4.09750         2.03820         2.62140
C          -5.27770         1.49260         0.98150
C          -4.86400         2.19470        -0.09520
H          -5.51280         2.45600        -0.80310
C          -6.66970         1.08180         1.12830
H          -6.74160         0.00150         0.98710
H          -7.03580         1.33060         2.12670
H          -7.32970         1.56500         0.40290
C          -0.96150         2.07450         0.38820
C          -0.84710         3.13780         1.53120
H          -1.43460         4.03130         1.32310
H           0.19000         3.45900         1.65350
H          -1.18300         2.72450         2.48320
C          -0.41550         2.70160        -0.94030
H          -0.58860         2.03130        -1.78620
H          -0.90530         3.65320        -1.15650
H           0.66000         2.88190        -0.87110
O           1.08220        -0.64320         0.86270

