#Put Keywords Here, check Charge and Multiplicity.

 Tetrahydrofurfuryl alcohol

0  1
C          -1.55210         1.81960        -1.08820
H          -1.23330         2.25760        -2.03730
H          -2.44810         2.33810        -0.73880
C          -0.42900         1.95830        -0.03100
H          -0.76350         1.47830         0.89440
C          -0.05810         3.42910         0.27110
H          -0.65380         4.13430        -0.31590
H          -0.20990         3.65190         1.33080
C           1.42590         3.56070        -0.09130
H           1.56840         4.28860        -0.89500
H           2.01030         3.88080         0.77590
C           1.85220         2.15780        -0.55410
H           2.19660         2.18370        -1.59050
H           2.66370         1.77510         0.07120
O           0.74170         1.26140        -0.47470
O          -1.88450         0.45670        -1.31270
H          -2.59830         0.48240        -1.98440

