#Put Keywords Here, check Charge and Multiplicity.

 Tetrahydrofurfuryl propionate

0  1
C          -2.31640         0.19740        -2.60900
C          -2.59320        -1.23000        -2.54650
H          -3.11110        -1.57130        -3.44970
H          -1.64020        -1.76530        -2.49740
C          -3.45070        -1.62550        -1.31880
H          -3.54980        -2.71240        -1.27720
H          -2.98780        -1.28680        -0.38810
H          -4.44940        -1.19030        -1.39420
O          -2.73060         0.86890        -3.54670
O          -1.64570         0.69070        -1.68330
C          -1.29000         1.95520        -1.40740
H          -0.64030         2.35270        -2.19330
H          -2.17970         2.58580        -1.33080
C          -0.53920         1.95150        -0.04950
H          -1.19650         1.51850         0.71250
C          -0.06570         3.34210         0.43240
H          -0.63080         4.16640        -0.01090
H          -0.13620         3.41080         1.52240
C           1.40250         3.38340         0.01270
H           1.49480         3.82440        -0.98370
H           2.01060         3.95080         0.72170
C           1.80100         1.90070        -0.00700
H           2.49890         1.70040        -0.82210
H           2.27220         1.61600         0.93680
O           0.61960         1.11160        -0.17530

