#Put Keywords Here, check Charge and Multiplicity.

 2-Thiophenethiol

0  1
C           1.92350         1.21400         0.54020
C           1.38350        -0.00670         0.12370
H           1.93380        -0.86680         0.08120
C           0.02230         0.02920        -0.23340
H          -0.48350        -0.79910        -0.55100
C          -0.59140         1.28020        -0.12200
H          -1.56560         1.50390        -0.33270
S           0.63290         2.39870         0.44960
S           3.55620         1.51060         1.04650
H           3.99200         1.81720        -0.20690

