#Put Keywords Here, check Charge and Multiplicity.

 Thymol

0  1
C           2.49170         0.83770        -0.28350
C           3.81520         0.37670        -0.45550
H           4.55010         1.04100        -0.72530
C           4.14110        -0.98400        -0.26040
C           5.52940        -1.47190        -0.44040
H           5.73250        -2.32360         0.21260
H           6.25730        -0.69390        -0.20150
H           5.67730        -1.78360        -1.47610
C           3.11140        -1.87950         0.09770
H           3.30990        -2.87420         0.24070
C           1.79220        -1.42430         0.26180
H           1.07460        -2.10700         0.51840
C           1.44880        -0.06160         0.07700
C           0.02060         0.37370         0.25990
H          -0.07390         1.44490         0.07100
C          -0.45800         0.17030         1.72410
H          -1.46590         0.57080         1.84990
H          -0.47570        -0.88700         1.99460
H           0.20750         0.69790         2.41210
C          -0.92890        -0.30690        -0.76610
H          -1.94110         0.08920        -0.66290
H          -0.97110        -1.38720        -0.61670
H          -0.58670        -0.10670        -1.78460
O           2.30030         2.06930        -0.46710
H           1.50890         2.43610        -0.36710

