#Put Keywords Here, check Charge and Multiplicity.

 2-Tridecenal

0  1
C           1.33720         0.13640        -0.07340
H           1.36700        -0.68260         0.48760
C           0.16840         0.76870        -0.32400
H           0.19710         1.61950        -0.84430
C          -1.02090         0.30860         0.10400
H          -1.06220        -0.55060         0.60500
C          -2.27920         1.00200        -0.11280
H          -2.13540         1.87970        -0.75160
H          -2.95750         0.32270        -0.63460
C          -2.93160         1.45090         1.22580
H          -3.13030         0.57400         1.84940
H          -2.23430         2.10360         1.76020
C          -4.25670         2.22180         0.98830
H          -4.95710         1.57270         0.45620
H          -4.01880         3.07000         0.34460
C          -4.95110         2.73850         2.28230
H          -4.26640         3.39490         2.82730
H          -5.16400         1.88260         2.92990
C          -6.28930         3.49590         2.01880
H          -6.72170         3.77980         2.98280
H          -6.99580         2.81730         1.53250
C          -6.12470         4.77840         1.15140
H          -5.71310         4.50210         0.18020
H          -5.41580         5.44390         1.65000
C          -7.44100         5.55260         0.87730
H          -7.87010         5.88830         1.82570
H          -8.15560         4.88010         0.39420
C          -7.19110         6.77900        -0.04560
H          -6.73180         6.43920        -0.97950
H          -6.48550         7.45080         0.45140
C          -8.48210         7.56690        -0.38980
H          -9.18260         6.90550        -0.90730
H          -8.95480         7.90870         0.53420
C          -8.20780         8.79390        -1.28900
H          -7.52520         9.48770        -0.79470
H          -7.77040         8.48210        -2.23920
H          -9.14500         9.31700        -1.49370
O           2.39470         0.56490        -0.51210

