#Put Keywords Here, check Charge and Multiplicity.

 Triethyl citrate

0  1
C          -1.14790         5.94490        -0.99380
C          -0.31280         5.25400        -1.96330
H           0.57690         5.87280        -2.09110
H          -0.82350         5.23550        -2.93340
C           0.10500         3.78210        -1.59840
O           0.91110         3.80910        -0.41370
H           1.67000         4.39050        -0.62150
C           0.91750         3.22800        -2.70070
C          -1.15370         2.89590        -1.26110
H          -1.86790         2.97760        -2.08880
H          -1.65920         3.29760        -0.37850
C          -0.88260         1.48870        -0.99220
O          -2.26570         6.31980        -1.33120
O          -0.70470         6.15480         0.15290
O           0.39540         2.56000        -3.58330
O           2.15130         3.35650        -2.82120
O          -1.39180         0.63940        -1.71680
O          -0.14960         1.17090        -0.03270
C          -1.31300         6.71180         1.21060
H          -2.20350         6.13430         1.47170
H          -1.61390         7.73780         0.98040
C          -0.35780         6.72710         2.41490
H          -0.85520         7.18190         3.27390
H           0.53680         7.30630         2.17700
H          -0.06800         5.70690         2.67460
C           2.89640         4.45560        -3.03530
H           3.93620         4.12920        -3.09520
H           2.82830         5.14100        -2.18910
C           2.55820         5.20500        -4.34640
H           2.82350         4.59320        -5.20930
H           3.11800         6.14010        -4.39340
H           1.49500         5.43900        -4.39810
C           0.27680        -0.04580         0.34600
H          -0.57500        -0.68660         0.59140
H           0.84310        -0.51310        -0.46430
C           1.18580         0.07330         1.58010
H           1.50820        -0.92070         1.89650
H           0.64470         0.54690         2.40160
H           2.06790         0.66960         1.33870

