#Put Keywords Here, check Charge and Multiplicity.

 2-Undecanone

0  1
C           2.66790        -0.19030        -1.06280
H           3.41360         0.56170        -0.79270
H           2.42650        -0.06070        -2.11940
H           3.10400        -1.18010        -0.92150
C           1.48160        -0.06980        -0.23970
C           0.16770        -0.50090        -0.70450
H          -0.45130        -0.77840         0.15320
H           0.27820        -1.39240        -1.32750
C          -0.55260         0.61550        -1.50810
H          -0.69920         1.47560        -0.84680
H           0.09090         0.93170        -2.33430
C          -1.93350         0.19970        -2.09590
H          -1.79500        -0.62630        -2.79800
H          -2.58340        -0.14380        -1.28500
C          -2.61770         1.38600        -2.83210
H          -1.98000         1.70830        -3.66040
H          -2.68910         2.20760        -2.11890
C          -4.03660         1.07520        -3.38800
H          -4.68750         0.75620        -2.56970
H          -3.96120         0.24500        -4.09570
C          -4.71320         2.26900        -4.12340
H          -5.67390         1.92570        -4.51780
H          -4.09270         2.56390        -4.97410
C          -4.96900         3.50410        -3.21570
H          -4.01570         3.87820        -2.84140
H          -5.57840         3.19610        -2.36130
C          -5.67280         4.67620        -3.94530
H          -6.65640         4.35300        -4.29380
H          -5.08020         4.97480        -4.81530
C          -5.84760         5.90230        -3.01840
H          -6.47090         5.64470        -2.15880
H          -4.87530         6.24780        -2.65880
H          -6.32610         6.71700        -3.56420
O           1.59350         0.39720         0.88690

