#Put Keywords Here, check Charge and Multiplicity.

 Undecyl alcohol

0  1
C           0.29240         0.03940         0.39870
H           0.32050        -1.04490         0.26460
H          -0.63620         0.42500        -0.02760
C           0.37460         0.39560         1.89930
H           1.32160         0.01070         2.29240
H           0.38810         1.48520         2.00200
C          -0.80510        -0.17850         2.73250
H          -0.83390        -1.26520         2.61370
H          -1.74790         0.23010         2.35810
C          -0.66350         0.15860         4.24000
H          -0.65820         1.24530         4.36400
H           0.30430        -0.22430         4.56380
C          -1.78320        -0.44170         5.13880
H          -2.74920        -0.06360         4.79160
H          -1.79780        -1.52980         5.02600
C          -1.64020        -0.08720         6.65050
H          -2.49710        -0.51340         7.18060
H          -1.68880         0.99930         6.76970
C          -0.33370        -0.62600         7.30170
H          -0.29960        -1.71140         7.17120
H           0.52670        -0.19700         6.78700
C          -0.17370        -0.29280         8.80800
H          -0.99250        -0.74980         9.37010
H          -0.23020         0.79070         8.94140
C           1.18590        -0.80710         9.36220
H           1.22550        -1.89370         9.24140
H           2.00060        -0.37310         8.77350
C           1.42060        -0.45830        10.85550
H           1.40610         0.62780        10.98500
H           0.61400        -0.88330        11.45850
C           2.77110        -0.99870        11.38120
H           2.89020        -0.73830        12.43490
H           3.60130        -0.56400        10.82040
H           2.81060        -2.08570        11.28560
O           1.39220         0.61460        -0.29910
H           1.27340         0.35080        -1.23660

