#Put Keywords Here, check Charge and Multiplicity.

 2-Acetylpyrazine

0  1
C          -0.85690         0.24990         0.00000
C           0.37770         0.94540         0.00000
H           1.27000         0.44890         0.00000
N          -1.98820         1.01240         0.00000
N           0.38670         2.30320         0.00000
C          -0.75310         3.03820         0.00000
H          -0.70810         4.05820         0.00000
C          -1.98700         2.36880         0.00000
H          -2.86700         2.88600         0.00000
C          -0.95340        -1.14270         0.00000
O           0.05790        -1.83480         0.00000
C          -2.23440        -1.82610         0.00000
H          -2.80100        -1.54460         0.88930
H          -2.80100        -1.54460        -0.88930
H          -2.12070        -2.91280         0.00000

