#Put Keywords Here, check Charge and Multiplicity.

 Biphenyl

0  1
C          -0.71530        -1.23890         0.00000
C          -1.60660        -1.55380         1.05280
H          -1.74770        -0.90450         1.83190
C          -2.30720        -2.77270         1.05320
H          -2.94590        -2.99350         1.82130
C          -2.12830        -3.68630         0.00000
H          -2.63950        -4.57170         0.00000
C          -1.24760        -3.38440        -1.05320
H          -1.11940        -4.04800        -1.82130
C          -0.54230        -2.16830        -1.05280
H           0.09050        -1.96580        -1.83190
C          -0.00620        -0.01080         0.00000
C          -0.70270         1.22090         0.00580
H          -1.72630         1.24410         0.00320
C           0.00110         2.43790         0.00320
H          -0.51140         3.32330         0.00260
C           1.40680         2.43670         0.00000
H           1.91800         3.32210         0.00000
C           2.11070         1.21990        -0.00320
H           3.13380         1.21880        -0.00260
C           1.40870         0.00190        -0.00580
H           1.94060        -0.87300        -0.00320

