#Put Keywords Here, check Charge and Multiplicity.

 Butylamine

0  1
N           2.20620         3.57080         1.34970
H           1.50080         3.80960         0.64930
H           3.11820         3.79800         0.94720
C           2.16500         2.11500         1.51660
H           2.93280         1.82870         2.24000
H           1.18600         1.84120         1.91820
C           2.40870         1.39970         0.16640
H           3.38370         1.70740        -0.22330
H           1.64080         1.71990        -0.54440
C           2.37460        -0.14610         0.29120
H           1.39990        -0.45750         0.67850
H           3.14280        -0.47000         0.99960
C           2.61820        -0.85710        -1.05890
H           1.84910        -0.57500        -1.78090
H           2.58470        -1.93910        -0.91920
H           3.59790        -0.58750        -1.45870

