#Put Keywords Here, check Charge and Multiplicity.

 2-Isobutylthiazole

0  1
S           0.74100         2.56850         0.41640
C           1.84230         1.27410        -0.02890
N           1.08030         0.22110        -0.40200
C          -0.26840         0.40020        -0.35690
H          -0.91620        -0.34580        -0.61710
C          -0.71280         1.65740         0.06180
H          -1.67650         1.98170         0.14600
C           3.31580         1.33520        -0.02860
H           3.60720         2.30790        -0.43390
H           3.70110         0.56860        -0.70710
C           3.95340         1.14530         1.38400
H           3.52740         1.89130         2.06460
C           5.48610         1.39980         1.33040
H           5.97700         0.68260         0.66810
H           5.69110         2.40810         0.96550
H           5.92400         1.31060         2.32700
C           3.65590        -0.26150         1.97980
H           2.58880        -0.36990         2.18430
H           3.96150        -1.04810         1.28560
H           4.19170        -0.40340         2.92200

