#Put Keywords Here, check Charge and Multiplicity.

 2,6-Dimethoxyphenol

0  1
C           0.18750         0.21740        -1.82750
C           0.50040        -0.20980        -0.51410
C           1.81220        -0.66840        -0.24510
H           2.06790        -1.00740         0.68420
C           2.79210        -0.66800        -1.25040
H           3.73850        -0.99120        -1.04040
C           2.47390        -0.22810        -2.54420
H           3.20990        -0.22980        -3.25360
C           1.16200         0.20350        -2.85520
O           0.79370         0.57040        -4.02580
C           1.46050         0.62040        -5.18330
H           0.77780         0.95590        -5.96300
H           2.29060         1.32650        -5.11870
H           1.83710        -0.36810        -5.45460
O          -0.42550        -0.14640         0.37030
C          -0.42100        -0.42180         1.68120
H          -1.40380        -0.18560         2.09100
H          -0.21760        -1.47990         1.86040
H           0.32300         0.18570         2.20100
O          -0.98390         0.61040        -2.08360
H          -1.20690         0.87120        -2.89430

