#Put Keywords Here, check Charge and Multiplicity.

 3,7-Dimethyl-6-octenoic acid

0  1
C          -4.34530         1.59360        -3.54740
C          -5.39360         0.99140        -2.74370
H          -6.22770         1.69780        -2.71400
H          -5.76050         0.08520        -3.23640
C          -4.96030         0.63190        -1.28120
H          -4.65220         1.55690        -0.78230
C          -3.75160        -0.36460        -1.26750
H          -4.08120        -1.30480        -1.71440
H          -2.95640         0.02560        -1.90830
C          -3.09700        -0.62310         0.12290
H          -3.83510        -0.85240         0.89250
H          -2.60940         0.30430         0.44110
C          -2.10270        -1.69060         0.07170
H          -1.15630        -1.38450         0.03720
C          -2.34120        -3.02430         0.04320
C          -1.22830        -3.97410        -0.04110
H          -1.33890        -4.60260        -0.92840
H          -0.25120        -3.49200        -0.10570
H          -1.21930        -4.62110         0.83880
O          -3.95930         1.06340        -4.57950
O          -3.81240         2.63870        -3.19520
H          -3.14110         2.97630        -3.65420
C          -3.67940        -3.62280         0.09110
H          -3.78110        -4.21820         1.00090
H          -4.49580        -2.90240         0.08390
H          -3.82500        -4.27730        -0.77160
C          -6.18960         0.07490        -0.50240
H          -7.03410         0.76400        -0.57190
H          -5.96170        -0.05570         0.55530
H          -6.49810        -0.88860        -0.91350

