#Put Keywords Here, check Charge and Multiplicity.

 Ethyl trans-2,cis-4-decadienoate

0  1
C          -0.85810         1.47710        -1.10590
C          -1.12570         2.79000        -1.36890
H          -1.68890         2.98910        -2.16800
C          -0.67880         3.82640        -0.62970
H          -0.13350         3.61370         0.16950
C          -0.93610         5.13750        -0.91420
H          -1.52750         5.32800        -1.69480
C          -0.47570         6.21470        -0.24530
H          -0.76770         7.10460        -0.58420
C           0.41000         6.25120         0.91800
H           0.89340         5.29310         1.11030
H           1.21990         6.95270         0.70000
C          -0.32510         6.71190         2.20970
H          -1.25100         6.14100         2.32410
H          -0.58730         7.76980         2.10930
C           0.53750         6.51640         3.48980
H           1.49760         7.02150         3.34920
H           0.73380         5.44770         3.62420
C          -0.13040         7.06070         4.78240
H          -0.33680         8.12750         4.66170
H          -1.08220         6.54830         4.94840
C           0.75860         6.86850         6.03350
H           0.25690         7.27690         6.91230
H           1.71130         7.38570         5.90620
H           0.95190         5.80820         6.20550
O          -1.34170         0.62610        -1.84510
O          -0.13260         1.14610        -0.14060
C           0.26420        -0.06530         0.28210
H           0.83150        -0.57320        -0.50350
H          -0.60440        -0.67710         0.54260
C           1.16110         0.07720         1.52710
H           1.47610        -0.91210         1.86470
H           0.61170         0.56690         2.33490
H           2.04930         0.66720         1.28780

