#Put Keywords Here, check Charge and Multiplicity.

 2-Ethyl-3,5-dimethylpyrazine

0  1
C           1.43240         0.19450         0.06280
C           2.58010         1.01470         0.24010
N           1.62630        -1.08440        -0.36320
N           3.79780         0.46990        -0.02750
C           3.98650        -0.80650        -0.44780
C           2.84710        -1.61330        -0.62160
H           2.92980        -2.58340        -0.92940
C           5.34400        -1.31950        -0.70350
H           5.53710        -2.18870        -0.07250
H           6.09580        -0.55900        -0.48450
H           5.43870        -1.61230        -1.75030
C           2.54650         2.41790         0.70710
H           1.94720         3.02980         0.03210
H           2.12630         2.46470         1.71300
H           3.54960         2.84880         0.73870
C           0.03680         0.62300         0.33290
H          -0.09470         1.67930         0.08620
H          -0.65180         0.05870        -0.30260
C          -0.36460         0.37490         1.80370
H          -1.40110         0.67810         1.95660
H           0.26810         0.94900         2.48220
H          -0.27760        -0.68480         2.05410

