#Put Keywords Here, check Charge and Multiplicity.

 2-Ethyl-3,6-dimethylpyrazine

0  1
C           1.43280        -0.30960         0.06980
C           2.25110        -1.45590        -0.12420
N           2.05040         0.86390         0.37800
N           3.59660        -1.30560         0.01240
C           4.19570        -0.13220         0.32470
H           5.21170        -0.09350         0.42010
C           3.39400         1.00880         0.51650
C           3.96110         2.32500         0.86320
H           4.87900         2.20930         1.44290
H           3.25110         2.89770         1.46330
H           4.18450         2.88370        -0.04740
C           1.75830        -2.80610        -0.47690
H           1.61710        -2.87440        -1.55650
H           2.48160        -3.56970        -0.17590
H           0.81540        -3.03280         0.01950
C          -0.04810        -0.29830        -0.00190
H          -0.39690         0.70620        -0.26350
H          -0.39460        -0.97360        -0.78610
C          -0.68660        -0.68930         1.35020
H          -1.76900        -0.76170         1.23700
H          -0.46690         0.06710         2.10720
H          -0.31190        -1.65230         1.70180

