#Put Keywords Here, check Charge and Multiplicity.

 2-Ethyl-l-hexanol

0  1
C           0.10840         2.11750         3.74470
H          -0.08920         3.16860         3.97000
H           1.18330         2.00430         3.57500
C          -0.67530         1.65750         2.47510
H          -0.38190         0.61590         2.30180
C          -0.21080         2.47310         1.21860
H          -0.44970         3.52820         1.36470
H           0.87860         2.40320         1.14400
C          -0.80530         2.00990        -0.14210
H          -1.89460         2.07170        -0.10490
H          -0.52670         0.96630        -0.31440
C          -0.31960         2.88200        -1.33140
H          -0.59430         3.92470        -1.14540
H           0.76910         2.82530        -1.40800
C          -0.93210         2.45520        -2.68320
H          -0.59820         3.13170        -3.47240
H          -2.02220         2.49210        -2.63350
H          -0.62050         1.44170        -2.93870
C          -2.22570         1.64290         2.70730
H          -2.45510         1.04890         3.59630
H          -2.71030         1.13060         1.87370
C          -2.88900         3.02980         2.87900
H          -3.96580         2.90710         3.02030
H          -2.73240         3.64900         1.99440
H          -2.48190         3.54110         3.75240
O          -0.22280         1.34200         4.89410
H           0.35490         1.69030         5.60550

