#Put Keywords Here, check Charge and Multiplicity.

 3-Ethyl-2-hydroxy-2-cyclopenten-1-one

0  1
C           3.39470         0.81780        -0.43520
C           2.21480         1.09210         0.12540
C           1.39520         0.03870         0.04380
C           2.05800        -1.07410        -0.59600
H           2.16530        -1.90670         0.10580
H           1.50400        -1.40310        -1.47990
C           3.44200        -0.50820        -0.97980
H           3.57540        -0.47400        -2.06540
H           4.25170        -1.08560        -0.52370
O           4.33780         1.59470        -0.49570
O           1.93540         2.17600         0.63230
H           1.15930         2.30220         1.02750
C           0.01240        -0.01500         0.50990
H          -0.11750         0.62080         1.39000
H          -0.23380        -1.03640         0.81380
C          -0.99060         0.43080        -0.57830
H          -2.00960         0.38330        -0.18780
H          -0.78650         1.45800        -0.88800
H          -0.92580        -0.22620        -1.44820

