#Put Keywords Here, check Charge and Multiplicity.

 5281167

0  1
O           1.53120         0.00180        -0.22250
C           0.07580         0.43170         1.70150
C          -1.60540        -1.97710         2.57400
C          -1.30180         0.47040         2.17520
C          -2.04000        -0.58760         2.55970
C           0.17880         0.21190         0.17240
C          -0.92470        -2.37820         3.90260
H           0.55850         1.38200         1.94580
H           0.63810        -0.34570         2.22110
H          -2.47640        -2.62160         2.42790
H          -0.92720        -2.17900         1.74350
H          -1.73940         1.36400         2.21310
H          -2.96870        -0.40500         2.86960
H          -0.21230         1.08430        -0.35600
H          -0.38960        -0.66800        -0.13400
H          -0.54840        -3.40040         3.82360
H          -1.64410        -2.33180         4.72270
H          -0.08350        -1.72090         4.13440
H           2.00570         0.81410         0.04760

