#Put Keywords Here, check Charge and Multiplicity.

 5-Ethyl-3-hydroxy-4-methyl-2(5H)-furanone

0  1
O          -2.04860        -0.56450        -0.35440
C          -2.04050         0.65230        -0.18780
C          -0.84100         1.06740         0.20700
C          -0.06420        -0.01300         0.28040
C          -0.86540        -1.14810        -0.12890
H          -0.96050        -1.86170         0.69640
O          -3.01720         1.36330        -0.37020
C           1.33560        -0.06700         0.66040
H           1.95140         0.05410        -0.23110
H           1.58550         0.72090         1.37390
H           1.56630        -1.03110         1.11830
O          -0.52600         2.23180         0.43950
H           0.29740         2.43210         0.67310
C          -0.33560        -1.85870        -1.40640
H           0.66690        -2.24840        -1.20820
H          -0.26650        -1.13600        -2.22620
C          -1.22950        -3.03460        -1.86010
H          -2.23530        -2.68230        -2.09480
H          -0.80370        -3.49660        -2.75290
H          -1.28730        -3.78790        -1.07070

