#Put Keywords Here, check Charge and Multiplicity.

 Furfuryl methyl Sulfide

0  1
S           0.25000        -0.42960        -0.81810
C          -0.98470         0.63800        -1.61740
H          -1.40740         0.11480        -2.47430
H          -0.51210         1.55850        -1.95780
H          -1.78190         0.87570        -0.91390
C           0.85910         0.57970         0.56850
H           0.03160         0.79730         1.24590
H           1.25990         1.52220         0.19090
C           1.89590        -0.18100         1.28020
C           3.26140        -0.18260         1.00460
H           3.74150         0.35740         0.28180
C           3.85000        -1.06740         1.89310
H           4.84260        -1.30240         1.95070
C           2.83100        -1.57700         2.68640
H           2.95180        -2.26060         3.43570
O           1.65030        -1.03160         2.30800

