#Put Keywords Here, check Charge and Multiplicity.

 Furfuryl isopropyl sulfide

0  1
S           3.85450         2.61920         0.00390
C           5.28170         3.46580         0.77050
H           5.57780         2.90410         1.66110
C           6.46850         3.44030        -0.22600
H           6.20040         3.93860        -1.16010
H           6.75200         2.40970        -0.44900
H           7.33830         3.94370         0.20070
C           4.91650         4.91230         1.19570
H           4.45890         5.45340         0.36520
H           5.80770         5.45610         1.51590
H           4.21640         4.90000         2.03230
C           2.66040         2.40400         1.35700
H           2.30250         3.37760         1.69300
H           3.14750         1.89780         2.19150
C           1.51520         1.62290         0.86600
C           1.31990         0.24890         0.99080
H           1.94440        -0.42080         1.44530
C           0.11400        -0.04320         0.37440
H          -0.32030        -0.96380         0.28480
C          -0.39450         1.15870        -0.10060
H          -1.28040         1.27500        -0.59850
O           0.46510         2.16030         0.19800

