#Put Keywords Here, check Charge and Multiplicity.

 2-Furyl methyl ketone

0  1
C          -0.82120        -1.08150        -0.14160
O          -1.95820        -1.05490         0.31020
C          -0.35420        -2.29050        -0.78610
H          -0.08410        -2.07590        -1.81990
H          -1.11610        -3.07270        -0.78980
H           0.52120        -2.67280        -0.26150
O           1.26930         0.10820        -0.49790
C          -0.00590         0.03220        -0.03170
C          -0.32790         1.25450         0.56160
H          -1.21620         1.50500         1.00260
C           0.78190         2.07630         0.44530
H           0.86260         3.03680         0.78190
C           1.75630         1.34030        -0.21510
H           2.69410         1.67140        -0.45250

