#Put Keywords Here, check Charge and Multiplicity.

 3-Hexenoic acid

0  1
C           2.13440        -3.49460         0.68460
C           2.61380        -2.86750        -0.53150
H           3.42300        -3.45660        -0.97150
H           1.79640        -2.85260        -1.25720
C           3.13320        -1.53370        -0.25960
H           3.90150        -1.46150         0.36950
C           2.62890        -0.40710        -0.79240
H           1.86790        -0.46510        -1.42800
C           3.11440         0.91880        -0.44710
H           2.96400         1.58910        -1.29780
H           4.18810         0.89830        -0.23550
C           2.36520         1.48670         0.77880
H           2.75440         2.47530         1.03020
H           1.29700         1.57780         0.56440
H           2.49580         0.83240         1.64480
O           2.64340        -4.52300         1.10580
O           1.20670        -2.99870         1.31840
H           0.94160        -3.35430         2.08010

