#Put Keywords Here, check Charge and Multiplicity.

 Hexyl isobutyrate

0  1
C           2.03530        -0.72650         1.05680
C           2.15880        -0.20840        -0.30110
H           1.18970        -0.30300        -0.80510
C           3.16620        -1.04780        -1.13160
H           4.18020        -0.93890        -0.74140
H           2.89020        -2.10550        -1.10240
H           3.15770        -0.72590        -2.17570
C           2.50080         1.30550        -0.29390
H           3.49620         1.47900         0.12000
H           1.77010         1.85450         0.30660
H           2.47080         1.70580        -1.31020
O           0.94530        -1.16180         1.41460
O           3.02100        -0.72360         1.83100
C           3.08340        -1.15920         3.10120
H           2.82050        -2.22200         3.13190
H           2.36230        -0.60300         3.70970
C           4.49660        -0.97790         3.71350
H           5.22590        -1.53090         3.11650
H           4.77030         0.07980         3.69110
C           4.52300        -1.49360         5.18010
H           3.77930        -0.93660         5.75600
H           4.23520        -2.54820         5.18110
C           5.88970        -1.36330         5.89880
H           6.18710        -0.31140         5.91610
H           6.64360        -1.92490         5.34060
C           5.84290        -1.89730         7.35880
H           5.55080        -2.95180         7.35840
H           5.09520        -1.34150         7.93280
C           7.20560        -1.76730         8.07540
H           7.13260        -2.15170         9.09530
H           7.51070        -0.71910         8.11880
H           7.96880        -2.33830         7.54130

