#Put Keywords Here, check Charge and Multiplicity.

 5352438

0  1
O           2.12940        -4.25930        -0.46640
O           0.31430        -5.38370        -0.59920
C           2.27440        -6.47140        -1.18160
C           2.66150        -7.42280        -0.02030
C           2.75460        -2.02080        -0.14060
C           1.85060        -3.02090        -0.89970
C           1.52940        -5.31080        -0.73660
C           2.48880        -0.63670        -0.50190
C           3.51730        -8.61470        -0.50580
C           0.66840        -0.16320         1.15600
C           1.58340         0.17720         0.07350
C           1.24990         0.18140         2.54550
H           1.67720        -7.01730        -1.91700
H           3.18700        -6.14250        -1.68620
H           1.75930        -7.81160         0.45900
H           3.23350        -6.86990         0.73030
H           2.63890        -2.16200         0.93820
H           3.79940        -2.24700        -0.37610
H           2.05110        -2.95590        -1.97450
H           0.79840        -2.77430        -0.72360
H           3.02500        -0.25870        -1.25020
H           4.44640        -8.25780        -0.95630
H           3.76590        -9.25800         0.33930
H           2.97100        -9.20440        -1.24460
H          -0.25690         0.40490         1.01900
H           0.39270        -1.21880         1.13340
H           1.53360         1.11170        -0.27130
H           0.53480        -0.10350         3.31980
H           1.43740         1.25540         2.62270
H           2.18440        -0.35520         2.72590

