#Put Keywords Here, check Charge and Multiplicity.

 2-(1-Mercapto-1-methylethyl)-5-methylcyclohexanone

0  1
C           0.06150         0.16130         0.52010
C          -0.57150        -1.16220         0.33730
H          -0.79010        -1.23480        -0.73420
C          -1.96800        -1.14300         1.05290
H          -2.55970        -2.00760         0.74350
H          -1.83000        -1.19610         2.13690
C          -2.82380         0.10900         0.71780
H          -3.72270         0.10130         1.33900
H          -3.13890         0.05800        -0.32860
C          -2.02860         1.42260         0.96280
H          -1.81520         1.49740         2.03530
C          -0.67260         1.37930         0.20060
H          -0.08660         2.26720         0.46310
H          -0.84600         1.40420        -0.87840
C          -2.87010         2.66680         0.57640
H          -3.08920         2.66970        -0.49420
H          -2.32770         3.58080         0.82800
H          -3.81400         2.66680         1.12620
C           0.31140        -2.44260         0.68480
C           1.53060        -2.55820        -0.28840
H           2.16310        -3.40820        -0.02390
H           1.18550        -2.69620        -1.31610
H           2.15760        -1.66870        -0.26190
C          -0.49410        -3.78040         0.56270
H           0.15940        -4.64740         0.69380
H          -0.96190        -3.86150        -0.42140
H          -1.27800        -3.85450         1.32050
S           0.94700        -2.40790         2.39430
H           1.88530        -1.45390         2.14180
O           1.19350         0.29420         0.96490

