#Put Keywords Here, check Charge and Multiplicity.

 o-Methoxycinnamaldehyde

0  1
C           1.46940        -0.02780        -0.02580
H           1.97760        -0.79730         0.34170
C           0.14060         0.11410         0.20180
H          -0.29110         0.93610        -0.14600
C          -0.59610        -0.79260         0.87280
H          -0.10330        -1.59080         1.20910
C          -1.97620        -0.73490         1.15320
C          -2.53310        -1.58310         2.16160
C          -3.92950        -1.55630         2.40850
H          -4.34520        -2.15880         3.12150
C          -4.77480        -0.69990         1.68670
H          -5.77980        -0.69080         1.87370
C          -4.23690         0.14590         0.70840
H          -4.85200         0.77050         0.18250
C          -2.85790         0.12580         0.44170
H          -2.51840         0.74810        -0.29400
O           2.08620         0.79280        -0.68880
O          -1.74000        -2.35310         2.81900
C          -1.94210        -3.31010         3.72930
H          -0.97420        -3.70430         4.04180
H          -2.45120        -2.91400         4.60780
H          -2.52750        -4.12420         3.30000

