#Put Keywords Here, check Charge and Multiplicity.

 2-Methoxy-3-methylpyrazine

0  1
C           0.47540        -0.19430        -0.52980
C           0.19750         0.22870        -1.85420
N           1.70040        -0.73820        -0.27530
N           1.16940         0.07560        -2.79560
C           2.38370        -0.46680        -2.53020
H           3.07790        -0.56190        -3.27250
C           2.66100        -0.89030        -1.22160
H           3.56310        -1.30510        -0.98650
C          -1.09130         0.83100        -2.26280
H          -1.92260         0.42890        -1.68000
H          -1.29330         0.62380        -3.31580
H          -1.05020         1.91220        -2.12200
O          -0.40780        -0.06020         0.38200
C          -0.33740        -0.37430         1.67940
H          -1.28490        -0.12310         2.15620
H          -0.15640        -1.44140         1.81090
H           0.45670         0.19320         2.16850

