#Put Keywords Here, check Charge and Multiplicity.

 3-Methylcrotonic acid

0  1
C           0.11200         0.05290        -0.02820
C           0.03290        -1.30040        -0.19470
H          -0.90330        -1.64130        -0.23870
C           1.01070        -2.23600        -0.30740
C           0.64470        -3.64790        -0.48170
H           1.05090        -4.24320         0.33860
H          -0.43380        -3.82860        -0.50630
H           1.05490        -4.02720        -1.41980
O          -0.91930         0.70620         0.04970
O           1.14580         0.69930         0.05350
H           1.12780         1.57290         0.16080
C           2.45690        -1.99950        -0.27500
H           2.90470        -2.34500        -1.20940
H           2.75500        -0.96670        -0.14750
H           2.90070        -2.56120         0.54990

