#Put Keywords Here, check Charge and Multiplicity.

 2-Methyl-3-furanthiol

0  1
O          -0.64240         1.04730         0.55570
C          -0.01290        -0.14030         0.36850
C          -0.95530        -1.08590        -0.04060
C          -2.18050        -0.43920        -0.08980
H          -3.07870        -0.85200        -0.34510
C          -1.95790         0.87860         0.28150
H          -2.67400         1.60500         0.34020
S          -0.69300        -2.76260        -0.41290
H          -0.82300        -3.15960         0.88570
C           1.43160        -0.34490         0.56600
H           1.94930        -0.15890        -0.37450
H           1.81300         0.33980         1.32530
H           1.63720        -1.36450         0.89120

