#Put Keywords Here, check Charge and Multiplicity.

 trans-2-Methyl-2-pentenoic acid

0  1
C          -2.27600         1.71010         0.07410
C          -1.61290         0.49700         0.04020
C          -0.25710         0.45810        -0.02540
H           0.24200         1.31990        -0.03940
C           0.61230        -0.71540        -0.07320
H           1.24240        -0.70070         0.81780
H           0.07250        -1.66300        -0.06210
C           1.52140        -0.70660        -1.32240
H           2.18070        -1.57750        -1.30650
H           0.91590        -0.73960        -2.23100
H           2.13830         0.19490        -1.33560
O          -1.70410         2.78100         0.23240
O          -3.49380         1.80810        -0.05690
H          -3.88750         2.59660        -0.02530
C          -2.38430        -0.75300         0.07300
H          -3.46480        -0.60990         0.14430
H          -2.08920        -1.34740         0.94050
H          -2.19620        -1.32520        -0.83870

