#Put Keywords Here, check Charge and Multiplicity.

 cis-Jasmone

0  1
C          -2.71880        -3.82450         0.18600
C          -3.18410        -4.67070         1.24420
H          -2.65190        -5.62410         1.24560
H          -4.25690        -4.84590         1.14520
C          -2.85910        -3.84610         2.50230
H          -2.14200        -4.36750         3.14300
H          -3.76370        -3.62970         3.07950
C          -2.28370        -2.63310         1.96990
C          -1.87700        -1.54850         2.84460
H          -2.71480        -0.86020         2.96190
H          -1.59910        -1.92590         3.83100
H          -1.02050        -1.00780         2.43690
C          -2.23700        -2.64760         0.62600
C          -1.75600        -1.56700        -0.24580
H          -0.69660        -1.39970        -0.02560
H          -1.81470        -1.84740        -1.30110
C          -2.53160        -0.34160        -0.10310
H          -3.51610        -0.42700         0.02470
C          -1.98430         0.88560        -0.12650
H          -1.00630         0.98000        -0.28550
C          -2.73780         2.10400         0.08130
H          -2.70440         2.71270        -0.82290
H          -3.78340         1.91550         0.33520
H          -2.28420         2.66390         0.90030
O          -2.76990        -4.17430        -0.98580

