#Put Keywords Here, check Charge and Multiplicity.

 25021440

0  1
O          -5.50980        -1.99910         2.95440
O          -4.66290        -3.92880         3.12870
C          -4.61650         0.22710         1.17660
C          -3.20490        -0.31020         0.75940
C          -4.79650         0.26530         2.73410
C          -2.94060        -0.41740        -0.77090
C          -4.91950         1.63740         0.58900
C          -4.66420        -1.09220         3.47130
C          -1.69020        -1.11500        -1.06930
C          -1.47570        -2.45270        -1.08830
C          -0.13610        -2.98140        -1.36490
C          -2.50860        -3.46130        -0.84400
C          -5.62970        -3.19280         3.28850
C          -6.81300        -3.68070         3.78990
C          -7.16880        -5.06740         3.45770
C          -7.58390        -2.88430         4.57250
C          -8.85340        -3.23250         5.18140
H          -5.37040        -0.45660         0.77310
H          -2.43110         0.31990         1.20640
H          -3.08930        -1.30910         1.18130
H          -4.06400         0.95560         3.16350
H          -5.78990         0.65840         2.97170
H          -3.77980        -0.90620        -1.26810
H          -2.88160         0.59120        -1.19150
H          -4.96320         1.60780        -0.50060
H          -4.14830         2.34830         0.89070
H          -5.88570         2.00750         0.94080
H          -3.62970        -1.43750         3.41450
H          -4.89790        -0.94220         4.53040
H          -0.91190        -0.52160        -1.25590
H          -0.15850        -3.59100        -2.27160
H           0.61880        -2.20390        -1.50880
H           0.19740        -3.60500        -0.53050
H          -2.20070        -4.12200        -0.03190
H          -3.47800        -3.05180        -0.56940
H          -2.64720        -4.06350        -1.74330
H          -7.15750        -5.21510         2.37600
H          -6.44320        -5.74940         3.90550
H          -8.15570        -5.36950         3.80420
H          -7.28200        -1.95230         4.75660
H          -9.14850        -2.47670         5.91490
H          -8.78970        -4.18890         5.70430
H          -9.62380        -3.28260         4.40950

