#Put Keywords Here, check Charge and Multiplicity.

 5-Methyl-2-phenyl-2-hexenal

0  1
C          -1.69310         2.38660        -0.37990
H          -2.51150         2.68560        -0.86060
C          -1.45130         1.05420        -0.17870
C          -0.18620         0.58630        -0.03830
H           0.56770         1.23810        -0.10290
C           0.23340        -0.79600         0.18740
H           0.83560        -1.07790        -0.68060
H          -0.60620        -1.49160         0.23060
C           1.08680        -0.99140         1.47970
H           1.93770        -0.30370         1.44030
C           0.30150        -0.67880         2.78580
H          -0.60550        -1.28220         2.85290
H           0.92240        -0.89170         3.65830
H           0.02630         0.37700         2.82290
O          -0.94880         3.27010         0.02170
C          -2.57410         0.22440        -0.15830
C          -3.54680         0.34800         0.86420
H          -3.42970         1.03220         1.61810
C          -4.69620        -0.46470         0.86180
H          -5.39790        -0.35510         1.59810
C          -4.88180        -1.42610        -0.14890
H          -5.70950        -2.02820        -0.14330
C          -3.92190        -1.55800        -1.16850
H          -4.05100        -2.25510        -1.90450
C          -2.78200        -0.73280        -1.18110
H          -2.10220        -0.83680        -1.94170
C           1.67160        -2.43030         1.52090
H           2.27690        -2.61650         0.63150
H           2.31210        -2.55570         2.39500
H           0.87150        -3.17270         1.56210

