#Put Keywords Here, check Charge and Multiplicity.

 4-Methyl-2-phenyl-2-pentenal

0  1
C           1.25220        -1.84170        -0.30860
H           2.06190        -1.71120        -0.87160
C           0.34710        -0.82940        -0.15320
C          -0.97740        -1.10460        -0.05340
H          -1.25970        -2.05840        -0.13700
C          -2.08250        -0.16960         0.19060
H          -1.71700         0.84800         0.34950
C          -2.85620        -0.57010         1.47800
H          -3.67120         0.13300         1.66750
H          -2.19000        -0.56110         2.34270
H          -3.28510        -1.57020         1.38040
O           1.13500        -2.92390         0.25200
C           0.87270         0.46770        -0.11950
C           1.75160         0.86330         0.92090
H           1.99930         0.21000         1.66870
C           2.30200         2.15810         0.94420
H           2.92830         2.43390         1.70310
C           1.99840         3.07280        -0.07860
H           2.40460         4.01110        -0.06490
C           1.13870         2.69280        -1.12420
H           0.91930         3.35700        -1.86970
C           0.58170         1.39870        -1.14750
H          -0.02860         1.14100        -1.92670
C          -3.04620        -0.13180        -1.02760
H          -3.86250         0.57220        -0.84730
H          -3.48040        -1.11790        -1.21190
H          -2.51620         0.18810        -1.92760

