#Put Keywords Here, check Charge and Multiplicity.

 Methyl propyl disulfide

0  1
S          -0.45910         2.00920         0.01290
S           0.00670        -0.03840        -0.07140
C           0.09840         2.59630        -1.61530
H           1.17300         2.43040        -1.68250
H          -0.39690         2.00260        -2.38490
C          -0.20010         4.09860        -1.82360
H           0.30610         4.67300        -1.04300
H          -1.27620         4.26850        -1.73420
C           0.27040         4.61970        -3.20050
H          -0.23090         4.08100        -4.00810
H           0.03040         5.68070        -3.29020
H           1.35090         4.49800        -3.30790
C           1.81930        -0.04820         0.01670
H           2.16490        -1.08160         0.05670
H           2.14910         0.48470         0.90920
H           2.23730         0.43150        -0.86810

