#Put Keywords Here, check Charge and Multiplicity.

 5-Methylquinoxaline

0  1
N          -3.05260        -2.06540        -0.22440
C          -2.56420        -3.32380        -0.37230
H          -3.19410        -4.11300        -0.52530
C          -1.17560        -3.52420        -0.30990
H          -0.77170        -4.45540        -0.41850
N          -0.36980        -2.45480        -0.09960
C          -0.83950        -1.18630         0.05770
C           0.02880        -0.08730         0.28430
C          -0.54060         1.20190         0.42290
H           0.05670         2.01840         0.57490
C          -1.93290         1.39300         0.35270
H          -2.32540         2.33040         0.45720
C          -2.78770         0.29950         0.13730
H          -3.79810         0.44860         0.08850
C          -2.24680        -0.99020        -0.01240
C           1.50480        -0.25730         0.35550
H           1.92680        -0.17080        -0.64740
H           1.96590         0.50170         0.99370
H           1.77160        -1.23440         0.76390

