#Put Keywords Here, check Charge and Multiplicity.

 trans,trans-2,4-Nonadienal

0  1
C          -4.21160        -1.96510         0.00110
H          -3.65420        -2.78720        -0.00090
C          -3.64980        -0.73290         0.00960
H          -4.26000         0.05500         0.00850
C          -2.31790        -0.52940         0.01360
H          -1.71920        -1.32670         0.01010
C          -1.74350         0.70870         0.01770
H          -2.33480         1.50960         0.01680
C          -0.41190         0.90360         0.01510
H           0.19550         0.11430         0.01720
C           0.22530         2.21320        -0.01740
H           0.81470         2.25410        -0.93470
H          -0.51110         3.02180        -0.05850
C           1.15520         2.45160         1.20370
H           1.91790         1.66800         1.24450
H           0.55470         2.37710         2.11520
C           1.86240         3.83610         1.21350
H           2.44280         3.91570         2.13730
H           1.10990         4.62750         1.23040
C           2.82060         4.09140         0.02650
H           3.55230         3.28610        -0.05530
H           3.35340         5.03150         0.18310
H           2.26740         4.16750        -0.90940
O          -5.42500        -2.10400         0.00140

