#Put Keywords Here, check Charge and Multiplicity.

 trans-2-Octenal

0  1
C           1.26370         0.15680        -0.05480
H           1.28140        -0.66310         0.50870
C           0.10670         0.80740        -0.32350
H           0.15530         1.64040        -0.86790
C          -1.09550         0.39370         0.11540
H          -1.15490        -0.44360         0.65270
C          -2.34320         1.10070        -0.13510
H          -2.18900         1.96390        -0.78950
H          -3.02570         0.41970        -0.65030
C          -3.00010         1.58020         1.18930
H          -3.18940         0.71210         1.82880
H          -2.30760         2.24850         1.71170
C          -4.33990         2.32770         0.95370
H          -5.02780         1.66020         0.42650
H          -4.15110         3.19730         0.31780
C          -5.01240         2.80450         2.26870
H          -4.33550         3.47810         2.80070
H          -5.20970         1.94220         2.91120
C          -6.34450         3.54390         2.01300
H          -6.78140         3.86020         2.96150
H          -7.05300         2.88680         1.50630
H          -6.17630         4.42810         1.39610
O           2.32850         0.56720        -0.49480

