#Put Keywords Here, check Charge and Multiplicity.

 trans-2-Pentenal

0  1
C           1.22140         0.17460        -0.04050
H           1.22630        -0.65130         0.51180
C           0.06940         0.83740        -0.30130
H           0.11770         1.65030        -0.87190
C          -1.12840         0.44840         0.17090
H          -1.18520        -0.35980         0.75180
C          -2.37970         1.13210        -0.11640
H          -2.82580         1.45080         0.83050
H          -2.23180         2.02790        -0.72890
C          -3.35740         0.18680        -0.85310
H          -4.29340         0.70820        -1.05540
H          -2.92710        -0.13940        -1.80330
H          -3.57600        -0.69590        -0.24580
O           2.28820         0.56750        -0.49000

