#Put Keywords Here, check Charge and Multiplicity.

 Isopentylamine

0  1
N           1.45070         0.03570        -0.11760
H           1.91130        -0.78940         0.27570
H           2.15290         0.54320        -0.65740
C           0.42810        -0.43640        -1.06100
H          -0.29720        -1.01090        -0.48500
H          -0.07320         0.43170        -1.49450
C           1.04870        -1.30530        -2.18670
H           1.79380        -0.68990        -2.70050
H           1.57520        -2.14700        -1.72750
C           0.03850        -1.84810        -3.25090
H          -0.45690        -0.98890        -3.71150
C           0.78150        -2.60800        -4.38690
H           1.29870        -3.48690        -3.99480
H           1.51500        -1.95710        -4.86670
H           0.07410        -2.93610        -5.15150
C          -1.06930        -2.75520        -2.64660
H          -1.72350        -3.13320        -3.43510
H          -0.62920        -3.60460        -2.11820
H          -1.69310        -2.19100        -1.95260

