#Put Keywords Here, check Charge and Multiplicity.

 Phenethyl octanoate

0  1
C          -0.93040         1.52920        -1.25960
C          -0.97840         2.80830        -1.93960
H          -1.83230         2.83270        -2.62450
H          -1.13600         3.59450        -1.19380
C           0.31890         3.10450        -2.74640
H           1.15620         3.20280        -2.05060
H           0.53060         2.26350        -3.41370
C           0.21310         4.40250        -3.59310
H          -0.62130         4.30080        -4.29260
H          -0.00390         5.23910        -2.92530
C           1.50360         4.72100        -4.39780
H           1.72480         3.88390        -5.06570
H           2.34170         4.83150        -3.70400
C           1.36660         6.01850        -5.24090
H           0.52850         5.90500        -5.93480
H           1.14210         6.85590        -4.57350
C           2.64580         6.35580        -6.05400
H           3.49070         6.47660        -5.37010
H           2.87480         5.52920        -6.73250
C           2.50460         7.65020        -6.89000
H           3.43000         7.83860        -7.43800
H           2.30550         8.50560        -6.24030
H           1.68830         7.55410        -7.60970
O          -1.74160         0.66170        -1.57640
O          -0.06410         1.33820        -0.37820
C           0.15590         0.22300         0.33640
H          -0.74950        -0.02380         0.90060
H           0.37830        -0.60220        -0.34750
C           1.33830         0.38360         1.32280
H           1.14860         1.22800         1.99320
H           2.25240         0.61170         0.76520
C           1.49480        -0.87660         2.09780
C           0.76460        -1.07900         3.29350
H           0.18120        -0.33160         3.67900
C           0.80960        -2.31650         3.95940
H           0.26260        -2.45680         4.81070
C           1.59950        -3.36150         3.44780
H           1.62640        -4.26310         3.92770
C           2.35100        -3.16650         2.27500
H           2.92460        -3.92520         1.90220
C           2.30590        -1.92890         1.60890
H           2.85660        -1.80710         0.75480

