#Put Keywords Here, check Charge and Multiplicity.

 40418649

0  1
O          -6.76400         1.94990         2.14340
O          -8.73910         2.08270         1.36690
C          -4.47460         0.27070         1.12120
C          -2.96610        -0.13800         1.21580
C          -5.11970         0.24760         2.54780
C          -2.11840         0.15950        -0.05670
C          -5.24390        -0.63330         0.10960
C          -6.59470         0.71270         2.64230
C          -0.78060        -0.41220         0.01650
C          -0.43980        -1.71100        -0.16490
C           0.96290        -2.12120        -0.05960
C          -1.39080        -2.78630        -0.46930
C          -7.83940         2.57440         2.03960
C          -8.01160         3.79530         2.64030
C          -8.68210         4.84090         1.85790
C          -7.57910         3.97260         3.91270
C          -7.69120         5.18420         4.70260
H          -4.51580         1.30150         0.75720
H          -2.49610         0.41190         2.03760
H          -2.90900        -1.19890         1.47620
H          -4.53520         0.89200         3.21050
H          -5.05590        -0.76750         2.94920
H          -2.59910        -0.19130        -0.96890
H          -2.04160         1.24670        -0.15500
H          -4.80970        -0.57230        -0.88670
H          -5.21980        -1.67540         0.43440
H          -6.28170        -0.31940         0.01090
H          -7.23180        -0.00790         2.12530
H          -6.88250         0.71040         3.69760
H          -0.05900         0.23780         0.23170
H           1.28780        -2.58450        -0.99370
H           1.64390        -1.29170         0.14710
H           1.07720        -2.84850         0.74690
H          -1.35420        -3.54530         0.31550
H          -2.42580        -2.45860        -0.54980
H          -1.12990        -3.25910        -1.41840
H          -8.17470         4.97680         0.90040
H          -9.71730         4.55260         1.66210
H          -8.70400         5.81220         2.34960
H          -7.14130         3.21030         4.38170
H          -7.24120         5.04240         5.68910
H          -8.74130         5.44700         4.84420
H          -7.17050         6.00890         4.21200

