#Put Keywords Here, check Charge and Multiplicity.

 2-Pentyl-2-butenal

0  1
C           1.97650        -0.92840         0.41580
H           2.88460        -0.94930         0.82060
C           1.35970         0.26460         0.11920
C           2.08160         1.40870         0.24930
H           3.02830         1.34070         0.55540
C           1.66220         2.77800         0.00380
H           2.33290         3.22980        -0.72920
H           0.64640         2.87960        -0.37000
H           1.73860         3.33980         0.93680
O           1.47180        -2.02220         0.19690
C          -0.04730         0.26040        -0.33160
H          -0.56530        -0.64890        -0.00960
H          -0.59980         1.07240         0.14760
C          -0.17940         0.35080        -1.87860
H           0.40020         1.20070        -2.24410
H           0.23860        -0.55550        -2.32650
C          -1.65480         0.51180        -2.34140
H          -2.05380         1.44960        -1.94460
H          -2.24650        -0.30350        -1.91570
C          -1.85510         0.49060        -3.88220
H          -2.92930         0.52520        -4.08510
H          -1.47540        -0.45000        -4.29160
C          -1.18910         1.67060        -4.62710
H          -1.49500         2.62310        -4.18770
H          -1.48810         1.65890        -5.67700
H          -0.10250         1.59000        -4.58320

