#Put Keywords Here, check Charge and Multiplicity.

 Phenyl disulfide

0  1
S          -0.91060        -1.66500        -2.23570
S          -0.98520        -1.37770        -0.14800
C          -2.05710        -0.46450        -2.79600
C          -1.66770         0.88420        -2.93950
H          -0.70370         1.17030        -2.74910
C          -2.61000         1.85090        -3.33800
H          -2.32950         2.83010        -3.43040
C          -3.93770         1.47010        -3.60840
H          -4.62270         2.17200        -3.89670
C          -4.32290         0.12210        -3.48300
H          -5.28540        -0.15530        -3.68840
C          -3.38420        -0.84510        -3.07780
H          -3.67320        -1.82210        -2.99070
C          -0.03910         0.08340         0.05570
C           1.35980         0.04380        -0.11830
H           1.82940        -0.83510        -0.35260
C           2.12280         1.21740         0.02480
H           3.13660         1.18730        -0.10340
C           1.48960         2.43300         0.34410
H           2.04710         3.28280         0.46200
C           0.09070         2.48020         0.50010
H          -0.37000         3.36780         0.71560
C          -0.67360         1.30620         0.36070
H          -1.69060         1.35180         0.46670

