#Put Keywords Here, check Charge and Multiplicity.

 Pyrazineethanethiol

0  1
C          -1.45880        -0.71540        -1.63890
C          -2.75300        -0.42590        -1.15230
H          -2.93050         0.39500        -0.57240
N          -1.30000        -1.83550        -2.39720
N          -3.78000        -1.26050        -1.45670
C          -3.61030        -2.37350        -2.21400
H          -4.40640        -2.97950        -2.42330
C          -2.32540        -2.67350        -2.70020
H          -2.15970        -3.50520        -3.26780
C           0.39970        -0.31410        -0.01440
H           0.76110        -1.34020        -0.11180
H          -0.30860        -0.26980         0.81570
C          -0.28790         0.13700        -1.32680
H          -0.59920         1.18250        -1.23300
H           0.43190         0.08440        -2.14920
S           1.80450         0.75210         0.38200
H           2.10370         0.06950         1.52090

