#Put Keywords Here, check Charge and Multiplicity.

 Tetrahydro-4-methyl-2-(2-methyl-2-propen-1-yl)pyran

0  1
C          -0.47840        -1.73420         0.26550
H          -0.62530        -1.88580         1.33470
C          -0.13890        -3.13820        -0.32190
H          -0.80940        -3.87040         0.13890
H           0.88530        -3.41830        -0.05900
C          -0.32180        -3.19680        -1.86700
H           0.42290        -2.54180        -2.33000
C          -1.73190        -2.66240        -2.24440
H          -1.81470        -2.57900        -3.33130
H          -2.49650        -3.36170        -1.89350
C          -2.00240        -1.27390        -1.61270
H          -3.05010        -1.01220        -1.77360
H          -1.39520        -0.51120        -2.10510
O          -1.76700        -1.25840        -0.18840
C           0.58140        -0.74830         0.02460
H           0.71610        -0.50130        -0.92910
C           1.38580        -0.16140         0.94120
C           2.39250         0.81050         0.50770
H           2.47270         1.63590         1.22060
H           2.16500         1.25240        -0.46700
H           3.36250         0.31450         0.43810
C           1.29560        -0.46090         2.36970
H           2.07660         0.02760         2.95590
H           1.39180        -1.53480         2.54200
H           0.33270        -0.11770         2.75310
C          -0.07600        -4.62280        -2.43230
H          -0.78740        -5.33950        -2.01530
H           0.93540        -4.95510        -2.19030
H          -0.17970        -4.62320        -3.52000

