#Put Keywords Here, check Charge and Multiplicity.

 2,2'-(Thiodimethylene)difuran

0  1
S          -2.53990        -0.17740         0.09310
C          -3.44660         0.48970        -1.33690
H          -3.79930        -0.32950        -1.96410
H          -2.78960         1.12350        -1.93340
C          -1.14800        -1.11180        -0.61500
H          -0.58790        -1.55830         0.20760
H          -1.52570        -1.92030        -1.24180
O          -5.81940         0.77760        -0.58490
C          -4.58350         1.27670        -0.83820
C          -4.57300         2.63430        -0.52680
H          -3.78000         3.27370        -0.61040
C          -5.84120         2.95910        -0.07470
H          -6.16080         3.87890         0.23430
C          -6.59050         1.79060        -0.12210
H          -7.57070         1.70860         0.15080
O          -0.38070        -0.00410        -2.72410
C          -0.26090        -0.23400        -1.39250
C           0.81350         0.50310        -0.90080
H           1.14590         0.52810         0.06550
C           1.34930         1.20220        -1.97000
H           2.14700         1.83950        -1.94260
C           0.58840         0.87020        -3.08390
H           0.73380         1.23160        -4.02750

