#Put Keywords Here, check Charge and Multiplicity.

 o-Toluenethiol

0  1
C          -0.86220        -1.18170        -0.12200
C           0.01410        -0.06260        -0.03620
C          -1.92740         1.37160         0.42410
H          -2.31440         2.29700         0.62160
C          -2.24900        -1.01170         0.07280
H          -2.88600        -1.80840         0.01820
C          -0.54410         1.21180         0.23080
H           0.05460         2.03980         0.28580
C          -2.78040         0.25860         0.34680
H          -3.78680         0.37370         0.49080
C           1.48420        -0.17190        -0.24070
H           1.70770        -0.05860        -1.30140
H           2.02120         0.60160         0.31020
H           1.86900        -1.13340         0.09910
S          -0.31250        -2.80170        -0.46670
H           0.02930        -3.05280         0.82860

