#Put Keywords Here, check Charge and Multiplicity.

 2-Acetyl-3-ethylpyrazine

0  1
C           2.11550        -1.14060        -0.07930
C           1.25070        -0.01960         0.11980
N           3.42690        -0.96000         0.26070
N           1.79280         1.12940         0.61200
C           3.09760         1.27930         0.93620
H           3.44110         2.16890         1.30410
C           3.95250         0.18490         0.75960
H           4.94520         0.24400         0.99510
C          -0.21410         0.02470        -0.13600
H          -0.54390         1.06330        -0.23470
H          -0.45560        -0.45600        -1.08420
C          -1.02330        -0.60700         1.02030
H          -2.07960        -0.66470         0.74820
H          -0.93140         0.01010         1.91740
H          -0.67120        -1.61410         1.25170
C           1.75380        -2.39690        -0.59340
O           0.59670        -2.66510        -0.88710
C           2.72380        -3.45960        -0.80920
H           3.49280        -3.12470        -1.50830
H           3.19560        -3.72560         0.13830
H           2.26400        -4.36160        -1.22190

