#Put Keywords Here, check Charge and Multiplicity.

 Cyclopentanethiol

0  1
C           0.35110         1.34720         0.12720
H          -0.02490         1.86350        -0.76130
C           1.86880         1.58100         0.24740
H           2.21940         1.34700         1.25740
H           2.13310         2.61450         0.00930
C           2.48990         0.59160        -0.76020
H           2.67780         1.10180        -1.71040
H           3.43870         0.19670        -0.38540
C           1.44980        -0.53550        -0.96610
H           1.14520        -0.57300        -2.01610
H           1.85760        -1.51060        -0.68720
C           0.23690        -0.17510        -0.08390
H          -0.70610        -0.44030        -0.56940
H           0.30420        -0.70520         0.87140
S          -0.58590         1.95040         1.55480
H           0.08150         1.16390         2.44340

