#Put Keywords Here, check Charge and Multiplicity.

 cis-4-Decenal

0  1
C           1.59190         0.16460         0.14980
H           1.70130        -0.73610        -0.25440
C           0.26980         0.66580         0.45850
H           0.34530         1.61600         0.99730
H          -0.20570        -0.05280         1.13090
C          -0.60090         0.88620        -0.81130
H          -0.58470         0.00590        -1.46030
H          -0.16490         1.70320        -1.39360
C          -1.97890         1.23110        -0.48230
H          -2.21870         2.19760        -0.51560
C          -2.95140         0.37450        -0.11580
H          -3.84040         0.77060         0.10070
C          -2.85090        -1.07710        -0.00540
H          -1.82090        -1.42650        -0.09990
H          -3.19200        -1.36700         0.99250
C          -3.72270        -1.79100        -1.07600
H          -4.77570        -1.57160        -0.87350
H          -3.47370        -1.39690        -2.06740
C          -3.51880        -3.33040        -1.09230
H          -3.71430        -3.72710        -0.09120
H          -2.47780        -3.54950        -1.34760
C          -4.44350        -4.05560        -2.10870
H          -4.24740        -3.67900        -3.11680
H          -5.48980        -3.84580        -1.86690
C          -4.23710        -5.58810        -2.10690
H          -4.91220        -6.05570        -2.82780
H          -4.44650        -5.99970        -1.11640
H          -3.20850        -5.83390        -2.38320
O           2.59600         0.81630         0.39500

