#Put Keywords Here, check Charge and Multiplicity.

 4,5-Dihydro-3(2H)thiophenone

0  1
C          -0.92530         0.25370         0.78390
H          -1.80830        -0.16050         1.27430
H          -1.13750         1.25540         0.40430
C          -0.46200        -0.60890        -0.27310
C           0.90270        -1.10150        -0.27000
H           1.40730        -0.77470        -1.18280
H           0.88600        -2.19390        -0.26150
C           1.67900        -0.58450         0.96330
H           2.09820        -1.40600         1.54630
H           2.47720         0.10100         0.66840
S           0.45480         0.31260         1.96250
O          -1.22110        -0.91240        -1.18290

