#Put Keywords Here, check Charge and Multiplicity.

 2,4-Dimethyl-5-acetylthiazole

0  1
S           2.16870        -2.27560        -0.06950
C           1.48410        -3.88450         0.01130
N           0.14520        -3.73120         0.05840
C          -0.34130        -2.46010         0.02480
C           0.62710        -1.43140        -0.04680
C           0.45820        -0.05140        -0.09330
O          -0.66420         0.42590        -0.18630
C           1.57460         0.87310        -0.03750
H           2.13540         0.72530         0.88750
H           2.24120         0.71180        -0.88700
H           1.23710         1.91340        -0.06550
C          -1.80240        -2.24730         0.06290
H          -2.12370        -1.72950        -0.84230
H          -2.33750        -3.19760         0.12250
H          -2.06820        -1.64730         0.93510
C           2.21930        -5.15290         0.02310
H           1.59510        -5.94910         0.42920
H           3.11540        -5.06070         0.63660
H           2.50810        -5.41200        -0.99480

