#Put Keywords Here, check Charge and Multiplicity.

 22227

0  1
O           1.25650        -0.13700         0.33960
C          -1.93960        -1.28790         0.90830
C          -2.70160         0.07840         0.97370
C          -0.60670         1.27260         0.06650
C          -1.73350         1.28190         1.14570
C          -0.74590        -1.22650        -0.10530
C           0.06040        -0.02940         0.10100
C          -2.85540        -2.43640         0.68230
C           0.33410         2.50150         0.22560
C          -3.59660        -2.56530        -0.57800
C          -3.02650        -3.37350         1.63650
H          -1.46870        -1.39550         1.89380
H          -3.40410         0.06700         1.81420
H          -3.27120         0.24710         0.05620
H          -1.07530         1.36840        -0.92000
H          -2.31000         2.20920         1.07350
H          -1.28950         1.24410         2.14630
H          -0.13300        -2.12620         0.00240
H          -1.11150        -1.19390        -1.13390
H          -0.24520         3.42750         0.19070
H           1.06280         2.52530        -0.58780
H           0.86960         2.46190         1.17720
H          -2.90650        -2.65940        -1.41610
H          -4.22930        -1.69370        -0.74120
H          -4.25450        -3.43840        -0.60990
H          -3.63750        -4.14560         1.50250
H          -2.54720        -3.32130         2.50250

