#Put Keywords Here, check Charge and Multiplicity.

 2,3-Dimethylpyrazine

0  1
C           0.00210         0.25710        -0.05940
C          -0.19100        -1.14890         0.00650
N          -0.59690         1.03050         0.88910
N          -0.99340        -1.63880         0.99350
C          -1.59890        -0.85640         1.92000
H          -2.19840        -1.27260         2.63480
C          -1.37800         0.52860         1.87750
H          -1.79750         1.15100         2.57000
C           0.43570        -2.10500        -0.93160
H           0.10310        -1.90290        -1.95130
H           0.17280        -3.13550        -0.68170
H           1.52210        -2.01060        -0.88310
C           0.81090         0.92280        -1.10360
H           0.40360         0.69050        -2.08920
H           0.80210         2.00810        -0.97960
H           1.84550         0.57910        -1.05270

