#Put Keywords Here, check Charge and Multiplicity.

 4,5-Dimethylthiazole

0  1
S          -1.26300         1.16290         1.12920
C          -1.47280        -0.31130         2.05300
H          -1.94090        -0.39940         2.95660
N          -0.89480        -1.30750         1.34910
C          -0.31160        -0.96820         0.16350
C          -0.37850         0.39910        -0.17980
C           0.12380         1.09030        -1.37730
H           1.03330         0.61140        -1.74410
H           0.34750         2.13290        -1.14720
H          -0.63880         1.06040        -2.15590
C           0.34450        -2.00570        -0.65410
H           1.40240        -2.05440        -0.39640
H          -0.10400        -2.98260        -0.46550
H           0.24700        -1.78300        -1.71720

