#Put Keywords Here, check Charge and Multiplicity.

 Dimethyl trisulfide

0  1
S          -0.03190         2.02390         0.07190
S           0.04320         2.57770        -1.95130
S          -0.00860        -0.07140        -0.04850
C           1.78740         3.02660        -2.17340
H           1.92360         3.46080        -3.16480
H           2.40990         2.13580        -2.07820
H           2.07680         3.75750        -1.41920
C           1.71850        -0.47020         0.34060
H           2.36670        -0.11280        -0.46080
H           2.00200         0.00430         1.27940
H           1.82460        -1.55140         0.43880

