#Put Keywords Here, check Charge and Multiplicity.

 2-Ethylpyrazine

0  1
C          -0.26760         0.16130        -0.16960
C          -0.80830         1.46250        -0.05340
H          -1.81860         1.62170        -0.06670
N           1.08770         0.03320        -0.14580
N           0.03410         2.52040         0.07130
C           1.38400         2.38000         0.08730
H           1.98800         3.19960         0.17470
C           1.93070         1.09030        -0.02290
H           2.94140         0.94700        -0.01550
C          -1.11550        -1.03770        -0.34900
H          -0.61590        -1.90940         0.08260
H          -2.06520        -0.90880         0.17820
C          -1.39470        -1.31220        -1.84250
H          -2.03720        -2.18770        -1.94460
H          -0.46000        -1.50380        -2.37200
H          -1.89640        -0.45750        -2.29940

