#Put Keywords Here, check Charge and Multiplicity.

 Ethyl thioacetate

0  1
C           0.08890         0.01010         0.17170
C          -0.98200        -0.75260         0.77490
H          -0.75100        -0.95820         1.82170
H          -1.93150        -0.21460         0.73740
H          -1.10910        -1.70000         0.24800
O          -0.17010         1.13940        -0.30170
S           1.64720        -0.68840         0.14640
C           0.61440         2.04550        -0.90730
H           1.06170         1.62300        -1.81200
H           1.41970         2.36450        -0.23880
C          -0.22620         3.27720        -1.29660
H           0.40380         4.01960        -1.78990
H          -0.66540         3.73000        -0.40500
H          -1.02450         2.98620        -1.98290

