#Put Keywords Here, check Charge and Multiplicity.

 Furfuryl3-methylbutanoate

0  1
C           5.00660         2.55190        -0.46350
C           5.83310         2.97890         0.65600
H           5.31560         3.81040         1.14460
H           6.78610         3.37210         0.28590
C           6.13590         1.86970         1.71830
H           5.18970         1.58850         2.19220
C           6.74890         0.57210         1.11420
H           7.69290         0.78450         0.61000
H           6.93590        -0.16070         1.90250
H           6.06410         0.11670         0.39650
O           5.47330         2.61880        -1.59680
O           3.84560         2.13040        -0.25740
C           7.05900         2.41960         2.84480
H           6.61030         3.29710         3.31440
H           7.20670         1.66300         3.61870
H           8.03690         2.70110         2.44670
C           2.97490         1.62360        -1.14890
H           3.40640         0.74170        -1.62930
H           2.76180         2.35920        -1.92860
C           1.69790         1.24330        -0.52430
C           1.36520        -0.01560        -0.02990
H           1.97180        -0.83660         0.00640
C           0.04450         0.04660         0.38490
H          -0.50740        -0.71690         0.78180
C          -0.38410         1.34700         0.15310
H          -1.31580         1.70960         0.36390
O           0.62290         2.06210        -0.40290

