#Put Keywords Here, check Charge and Multiplicity.

 1-Furfurylpyrrole

0  1
N          -0.39380         1.28110         0.02440
C           0.69060         2.08900         0.01380
H           0.67790         3.11210         0.00340
C           1.84140         1.30790         0.00610
H           2.80480         1.64300        -0.00560
C           1.43190        -0.01530         0.01420
H           2.03360        -0.84020         0.00550
C           0.04270        -0.00020         0.03190
H          -0.54970        -0.83380         0.03370
C          -1.76770         1.70040         0.00180
H          -2.28030         1.31440         0.88640
H          -1.85100         2.79120         0.02170
C          -2.44490         1.20590        -1.21100
C          -2.06920         1.48040        -2.52370
H          -1.29060         2.07050        -2.82730
C          -2.94060         0.78590        -3.34470
H          -2.93130         0.76870        -4.36500
C          -3.82460         0.11270        -2.51350
H          -4.58570        -0.49290        -2.82440
O          -3.51870         0.37670        -1.22180

