#Put Keywords Here, check Charge and Multiplicity.

 cis-4-Heptenal

0  1
C           1.56770         0.09770         0.16310
H           1.70480        -0.80770        -0.21850
C           0.23090         0.56490         0.46640
H           0.28720         1.56000         0.91770
H          -0.20200        -0.10810         1.21090
C          -0.69440         0.59980        -0.78140
H          -0.88080        -0.43130        -1.09980
H          -0.20380         1.10290        -1.61960
C          -1.97560         1.23350        -0.49200
H          -2.73840         0.62810        -0.28300
C          -2.22840         2.55530        -0.45260
H          -3.15480         2.82730        -0.20970
C          -1.29550         3.64190        -0.72820
H          -1.29610         4.32510         0.12550
H          -0.27080         3.29040        -0.85480
C          -1.70490         4.42610        -1.99460
H          -0.95000         5.18340        -2.21890
H          -1.79200         3.75880        -2.85760
H          -2.66220         4.92680        -1.83340
O           2.54860         0.79280         0.38570

