#Put Keywords Here, check Charge and Multiplicity.

 5-Methyl-2(3H)-furanone

0  1
O          -0.75760        -0.85430         0.42030
C          -1.91320        -0.62620         0.06210
C          -2.02230         0.53530        -0.76980
H          -2.36660         0.28720        -1.77690
H          -2.64420         1.31030        -0.31620
C          -0.63730         0.87780        -0.75240
H          -0.23860         1.65680        -1.21980
C           0.02790        -0.01750        -0.02150
O          -2.86400        -1.31960         0.38730
C           1.45450        -0.03870         0.21470
H           1.94040        -0.60800        -0.57950
H           1.86600         0.97370         0.22960
H           1.67240        -0.51610         1.17300

