#Put Keywords Here, check Charge and Multiplicity.

 5H-5-Methyl-6,7-dihydrocyclopenta[b]pyrazine

0  1
C           2.42400        -1.24060        -3.39470
H           2.28200        -1.01860        -4.38180
N           1.88280        -0.44670        -2.43080
C           2.05120        -0.73340        -1.11360
C           2.80250        -1.84550        -0.73900
N           3.34660        -2.64630        -1.69080
C           3.17290        -2.37500        -3.01390
H           3.58140        -2.98920        -3.72150
C           1.50280        -0.01020         0.03780
H           1.88770         1.01460         0.03240
C           2.08180        -0.79270         1.25790
H           1.28900        -1.14910         1.92140
H           2.73320        -0.14260         1.85050
C           2.88950        -1.99790         0.70790
H           2.44260        -2.94630         1.01410
H           3.93100        -1.96280         1.03610
C          -0.04710         0.02250         0.00000
H          -0.44920        -0.99240        -0.01100
H          -0.39610         0.54790        -0.89070
H          -0.43240         0.54300         0.87840

