#Put Keywords Here, check Charge and Multiplicity.

 3-(5-Methyl-2-furyl)butanal

0  1
C          -0.84480         0.95130         1.34010
C          -0.22050         0.57480         2.52770
H           0.24870        -0.31200         2.71950
C          -0.34250         1.63720         3.40870
H           0.01530         1.67390         4.36510
C          -1.03610         2.64120         2.74210
O          -1.32400         2.21420         1.48810
C          -1.39110         3.95530         3.29380
H          -1.51070         3.89530         4.37760
H          -2.32880         4.30230         2.85990
H          -0.60070         4.67030         3.06260
C          -0.95230         0.12460         0.10720
H          -0.93700        -0.93200         0.40010
C           0.23940         0.38130        -0.86530
H           0.11020        -0.22450        -1.76560
H           0.23530         1.43200        -1.17640
C          -2.30680         0.36950        -0.61150
H          -2.40020        -0.29250        -1.47530
H          -3.14320         0.16780         0.06300
H          -2.37710         1.40230        -0.96050
C           1.52670         0.03560        -0.30320
H           1.72130        -0.90340        -0.05100
O           2.39460         0.87910        -0.13540

