#Put Keywords Here, check Charge and Multiplicity.

 Methyl 2-thiofuroate

0  1
C          -1.49680         2.16930        -0.53070
C          -1.87910         3.51250        -0.58610
H          -1.36270         4.31130        -0.20760
C          -3.08920         3.57840        -1.25680
H          -3.62990         4.42190        -1.45690
C          -3.41990         2.27570        -1.60110
H          -4.26270         1.99790        -2.10880
O          -2.45340         1.43290        -1.15760
C          -0.34450         1.67110         0.04980
O           0.43240         2.41980         0.62530
S           0.04720        -0.01180        -0.00030
C           1.87020        -0.08680        -0.00410
H           2.19180        -1.12820        -0.02730
H           2.26830         0.39040         0.89290
H           2.25210         0.42920        -0.88630

