#Put Keywords Here, check Charge and Multiplicity.

 443159

0  1
O           1.20510         0.14830         0.42010
C          -0.68500        -1.23130         0.05120
C          -1.81720        -1.20790         1.13920
C          -1.83220         1.36420         1.08840
C          -2.70210         0.07020         1.07360
C           0.24690        -2.50680         0.13000
C          -0.74210         1.29250        -0.02300
C           0.01810         0.06060         0.13230
C          -2.70520         2.64010         0.96110
C          -0.53780        -3.85410         0.16720
C           1.27020        -2.57020        -1.04730
H          -1.18320        -1.26850        -0.92480
H          -1.36620        -1.27670         2.13440
H          -2.48290        -2.06400         1.01270
H          -1.32390         1.41980         2.05900
H          -3.39080         0.07310         1.92350
H          -3.30010         0.03630         0.15760
H           0.82240        -2.45540         1.05990
H          -0.08570         2.16700         0.04840
H          -1.20690         1.31170        -1.01270
H          -3.25800         2.63680         0.02010
H          -2.07850         3.53310         0.99660
H          -3.41990         2.69150         1.78620
H          -1.10950        -3.94840         1.09150
H           0.14760        -4.70480         0.13600
H          -1.21940        -3.92270        -0.68420
H           1.93220        -1.70510        -1.04810
H           1.90010        -3.45670        -0.95970
H           0.74990        -2.60730        -2.00520

