#Put Keywords Here, check Charge and Multiplicity.

 2969

0  1
O           0.14740         1.08640         3.46880
O          -1.28580         2.59870         3.19130
C          -0.00240         0.95660        -3.55460
C           0.34200         1.56910        -2.17110
C           0.87400         1.52640        -4.70240
C          -0.54400         0.99080        -1.03470
C           0.51470         0.90420        -6.07810
C          -0.20130         1.60030         0.34990
C           1.38160         1.46410        -7.23490
C          -1.08950         1.03130         1.48920
C           1.01980         0.84120        -8.60270
C          -0.73390         1.58840         2.77960
H           0.13550        -0.12790        -3.50650
H          -1.05450         1.15580        -3.77860
H           1.39280         1.36770        -1.94260
H           0.20620         2.65380        -2.21660
H           0.73680         2.61020        -4.75100
H           1.92600         1.32650        -4.48070
H          -1.59480         1.18910        -1.26610
H          -0.40540        -0.09210        -0.99220
H           0.65060        -0.17950        -6.02570
H          -0.53820         1.10380        -6.29560
H           0.85040         1.40070         0.57350
H          -0.34050         2.68430         0.30460
H           1.24850         2.54820        -7.29980
H           2.43760         1.26460        -7.02980
H          -0.99380        -0.05870         1.52220
H          -2.14010         1.25420         1.27380
H           1.65690         1.26780        -9.38090
H           1.17200        -0.23970        -8.58270
H          -0.02210         1.04940        -8.85390
H           0.59000         0.37910         3.18440

