#Put Keywords Here, check Charge and Multiplicity.

 2-Pentanol

0  1
C           2.05860        -0.66720        -3.80200
H           1.69990        -0.06300        -4.63660
H           1.68980        -1.68590        -3.93380
H           3.14910        -0.68240        -3.82920
C           1.55630        -0.07680        -2.46310
H           0.46340        -0.05700        -2.48470
C           2.02840        -0.91810        -1.24290
H           3.12160        -0.94140        -1.23250
H           1.67040        -1.94440        -1.36770
C           1.52650        -0.39060         0.12860
H           0.43280        -0.37550         0.13570
H           1.88030         0.63100         0.28270
C           2.01790        -1.25310         1.31470
H           1.64700        -0.83860         2.25390
H           3.10940        -1.26670         1.34810
H           1.65270        -2.27660         1.21910
O           2.02880         1.26800        -2.36660
H           1.63330         1.62030        -1.54070

