#Put Keywords Here, check Charge and Multiplicity.

 5,6,7,8-Tetrahydroquinoxaline

0  1
N          -0.81910         1.13970        -0.30980
C          -0.21900         2.33970        -0.11540
H          -0.77780         3.19310        -0.09950
C           1.17630         2.37650         0.06090
H           1.66590         3.25950         0.20990
N           1.86900         1.21020         0.02890
C           1.27280         0.00230        -0.16080
C           2.10090        -1.22440        -0.18740
H           2.93010        -1.13140         0.51710
H           2.52230        -1.32250        -1.19090
C           1.28760        -2.49720         0.15970
H           1.90000        -3.38390        -0.02920
H           1.02700        -2.48520         1.22240
C          -0.00400        -2.56340        -0.69640
H          -0.58350        -3.44510        -0.41460
H           0.28050        -2.67950        -1.74660
C          -0.88940        -1.29380        -0.54680
H          -1.51040        -1.19430        -1.44020
H          -1.55700        -1.41890         0.30830
C          -0.13340        -0.03390        -0.34570

