#Put Keywords Here, check Charge and Multiplicity.

 3,5,5-Trimethyl-1-hexanol

0  1
C           4.27360        -0.79440         1.25870
H           4.01720        -1.33580         0.34970
H           3.87610        -1.33180         2.11990
C           3.72270         0.65460         1.21780
H           4.16970         1.17200         2.07280
H           4.09720         1.14210         0.31320
C           2.16130         0.82260         1.29050
H           1.83880         0.31130         2.20290
C           1.43390         0.16390         0.05670
H           1.77430         0.68790        -0.84090
H           1.82040        -0.85380        -0.02160
C          -0.14300         0.02850        -0.01350
C          -0.70430        -0.73310         1.23190
H          -0.25630        -1.72540         1.31760
H          -1.78580        -0.85550         1.15390
H          -0.50180        -0.18560         2.15060
O           5.69370        -0.77190         1.35480
H           5.96890        -1.71320         1.32880
C          -0.49560        -0.82640        -1.28360
H          -0.04050        -1.81820        -1.23330
H          -1.57440        -0.96700        -1.37980
H          -0.13980        -0.33820        -2.19340
C          -0.87570         1.40620        -0.16420
H          -0.96600         1.92040         0.78910
H          -1.89760         1.27400        -0.52800
H          -0.34410         2.05420        -0.86600
C           1.82840         2.33780         1.46450
H           2.52450         2.82960         2.14780
H           0.84520         2.46600         1.90740
H           1.86550         2.85690         0.50380

