#Put Keywords Here, check Charge and Multiplicity.

 Acetone

0  1
C          -0.69040        -1.12860         0.14750
H          -0.55070        -1.32480         1.21170
H          -1.75770        -1.18080        -0.07970
H          -0.18670        -1.91160        -0.42430
C          -0.15240         0.17920        -0.17230
O          -0.89020         1.15420        -0.10890
C           1.23020         0.37020        -0.56270
H           1.87980        -0.36700        -0.08430
H           1.58540         1.36430        -0.27970
H           1.31630         0.26510        -1.64550

