#Put Keywords Here, check Charge and Multiplicity.

 2-Acetyl-3,5-dimethylpyrazine

0  1
C           1.23040        -1.37030         0.01710
C           0.31230        -2.43490        -0.22980
N           2.55530        -1.69540        -0.00730
N           0.81730        -3.67730        -0.46380
C           2.13920        -3.98160        -0.47990
C           3.04680        -2.93540        -0.23800
H           4.05660        -3.08800        -0.23210
C           2.56780        -5.37150        -0.71930
H           3.49300        -5.40470        -1.29620
H           1.80230        -5.91920        -1.27150
H           2.72820        -5.86710         0.23820
C          -1.16240        -2.30620        -0.25610
H          -1.52140        -1.96920         0.71660
H          -1.45970        -1.58600        -1.01990
H          -1.64660        -3.26030        -0.47970
C           0.89820        -0.03420         0.28520
O          -0.26490         0.30380         0.46080
C           1.89920         1.01840         0.37750
H           2.59240         0.80070         1.19120
H           2.45800         1.08020        -0.55790
H           1.45390         1.99780         0.56870

