#Put Keywords Here, check Charge and Multiplicity.

 2-Acetylthiazole

0  1
S           0.44180         1.43480         0.00000
C          -0.95730         0.37050         0.00000
N          -2.04800         1.17490         0.00000
C          -1.82920         2.51660         0.00000
H          -2.60110         3.18430         0.00000
C          -0.49070         2.91780         0.00000
H          -0.12800         3.87240         0.00000
C          -0.95200        -1.00970         0.00000
O           0.11840        -1.60340         0.00000
C          -2.18640        -1.76900         0.00000
H          -2.77160        -1.52460         0.88810
H          -2.77160        -1.52460        -0.88810
H          -1.99850        -2.84530         0.00000

