#Put Keywords Here, check Charge and Multiplicity.

 8174

0  1
O           1.04440         2.49350         1.78250
C          -2.40160        -0.23100        -2.83180
C          -3.88820        -0.44470        -3.21820
C          -2.23750         0.56080        -1.50750
C          -4.04640        -1.23720        -4.54350
C          -0.74670         0.77010        -1.12850
C          -5.53640        -1.45090        -4.92990
C          -0.56470         1.56060         0.19390
C          -5.71790        -2.24240        -6.25400
C           0.92270         1.76510         0.56490
C          -7.20250        -2.45240        -6.63400
H          -1.91850        -1.20520        -2.72600
H          -1.90030         0.31280        -3.63600
H          -4.37320         0.52960        -3.32460
H          -4.39140        -0.98910        -2.41420
H          -2.72210         1.53640        -1.61160
H          -2.74030         0.01790        -0.70140
H          -3.54250        -0.69350        -5.34770
H          -3.56070        -2.21150        -4.43780
H          -0.24860         1.31010        -1.93890
H          -0.26690        -0.20770        -1.02910
H          -6.03600        -1.99350        -4.12210
H          -6.01780        -0.47410        -5.03280
H          -1.05670         1.02180         1.00670
H          -1.03840         2.53990         0.09680
H          -5.24280        -3.22300        -6.15810
H          -5.22460        -1.70420        -7.06850
H           1.43660         2.31960        -0.22110
H           1.41830         0.80160         0.68880
H          -7.26620        -3.01160        -7.56820
H          -7.72150        -3.01680        -5.85680
H          -7.70320        -1.49190        -6.77080
H           2.01010         2.57220         1.93320

