#Put Keywords Here, check Charge and Multiplicity.

 Allyl thiopropionate

0  1
C           0.17220        -0.03360         0.06890
C          -1.00330        -0.87990         0.19410
H          -0.85430        -1.58520         1.01670
H          -1.88300        -0.27840         0.44620
C          -1.32980        -1.66160        -1.10110
H          -2.20460        -2.29350        -0.93540
H          -1.55150        -0.97310        -1.91950
H          -0.49500        -2.30230        -1.39520
O           0.00640         1.20310         0.11360
S           1.70970        -0.76800        -0.06590
C           0.87290         2.22210         0.02000
H           1.36810         2.21210        -0.95670
H           1.64370         2.13590         0.79320
C           0.14770         3.45770         0.23690
H          -0.01580         3.74030         1.17750
C          -0.32110         4.23380        -0.74720
H          -0.19380         3.99070        -1.70010
H          -0.80940         5.06980        -0.53090

