#Put Keywords Here, check Charge and Multiplicity.

 3-Butylidenephthalide

0  1
O           4.62050         3.99020         2.50810
C           4.03830         3.28970         1.69370
O           3.30700         2.33880         1.97520
C           2.82510         1.74730         0.98460
C           3.24820         2.42770        -0.14620
C           3.03670         2.33790        -1.54150
H           2.39440         1.66730        -1.95530
C           3.73640         3.21490        -2.39990
H           3.61270         3.13910        -3.41190
C           4.60460         4.19560        -1.87380
H           5.11270         4.81800        -2.50480
C           4.77070         4.32100        -0.48060
H           5.37960         5.04090        -0.08760
C           4.08070         3.42320         0.35080
C           2.07290         0.64480         1.18020
H           1.92820         0.37530         2.12850
C           1.44680        -0.23190         0.20270
H           1.83620        -0.07690        -0.79610
H           1.71120        -1.26450         0.44850
C          -0.10040        -0.08650         0.17170
H          -0.37430         0.97180         0.13780
H          -0.47200        -0.54780        -0.74780
C          -0.81910        -0.75630         1.36790
H          -0.56550        -0.25430         2.30270
H          -1.89910        -0.69870         1.22510
H          -0.53700        -1.80840         1.44220

