#Put Keywords Here, check Charge and Multiplicity.

 2,3-Diethyl-5-methylpyrazine

0  1
C           1.19050        -0.80710        -0.06480
C           1.75850         0.45670         0.26000
N           2.03470        -1.86870        -0.17950
N           3.10890         0.52510         0.41570
C           3.94680        -0.53800         0.29360
C           3.37560        -1.78720        -0.01110
H           3.94700        -2.62950        -0.10600
C           5.39750        -0.35610         0.48450
H           5.86890        -0.11530        -0.47070
H           5.58640         0.45720         1.18810
H           5.85020        -1.26520         0.88540
C           0.98730         1.70770         0.46670
H           0.14470         1.76030        -0.22340
H           1.61970         2.57380         0.25360
C           0.47770         1.82740         1.91980
H          -0.16760         2.70230         2.01240
H           1.32000         1.94250         2.60470
H          -0.09450         0.94500         2.21340
C          -0.25010        -1.06350        -0.31970
H          -0.49030        -2.10800        -0.10000
H          -0.87500        -0.45810         0.33840
C          -0.62280        -0.78700        -1.79320
H          -1.70020        -0.89240        -1.92820
H          -0.11960        -1.50110        -2.44750
H          -0.33560         0.22320        -2.09040

