#Put Keywords Here, check Charge and Multiplicity.

 Heptanoic acid

0  1
C          -0.07270         0.11310        -0.06530
C          -1.36250         0.13510         0.59910
H          -2.15490         0.01610        -0.14610
H          -1.41590        -0.72270         1.27440
C          -1.62130         1.44390         1.39970
H          -1.54230         2.29880         0.72130
H          -0.85680         1.55250         2.17430
C          -3.02350         1.46010         2.06890
H          -3.09430         0.62000         2.76280
H          -3.77860         1.32520         1.29240
C          -3.31510         2.77750         2.83950
H          -3.24070         3.62830         2.15490
H          -2.54890         2.90730         3.60870
C          -4.70020         2.81510         3.54210
H          -4.76990         3.74770         4.11040
H          -4.76800         1.99030         4.25830
C          -5.91030         2.75280         2.57980
H          -6.83610         2.91280         3.13510
H          -5.96990         1.77340         2.10420
H          -5.82880         3.52230         1.80990
O           0.00870         0.02980        -1.28240
O           0.96910         0.16490         0.57860
H           1.74890         0.14670         0.16920

