#Put Keywords Here, check Charge and Multiplicity.

 4-Hexen-3-one

0  1
C          -1.93010         1.92390        -1.16600
H          -1.89740         3.00110        -0.99440
H          -0.98400         1.62360        -1.62050
H          -2.74050         1.70980        -1.86510
C          -2.15400         1.19540         0.18210
H          -1.32080         1.42990         0.85020
H          -3.05600         1.61580         0.63790
C          -2.27570        -0.25470         0.06660
C          -1.24850        -1.03150        -0.38820
H          -0.38110        -0.57830        -0.57360
C          -1.31350        -2.35740        -0.61270
H          -2.15540        -2.85350        -0.42150
C          -0.21040        -3.13560        -1.13870
H          -0.53630        -3.63980        -2.04940
H           0.66140        -2.52430        -1.38200
H           0.08820        -3.88790        -0.40680
O          -3.33690        -0.76340         0.41350

