#Put Keywords Here, check Charge and Multiplicity.

 cis-3-Hexenyl formate

0  1
C           1.31330        -0.06540         0.02790
H           1.98270         0.66960        -0.01950
O           1.70870        -1.21910         0.01200
O           0.09430         0.14980         0.09560
C          -0.52500         1.33910         0.05940
H          -0.27980         1.85400        -0.87600
H          -0.19320         1.95830         0.89870
C          -2.05960         1.14520         0.13550
H          -2.32170         0.69750         1.09790
H          -2.35950         0.43410        -0.63400
C          -2.76700         2.41410         0.01770
H          -2.60550         3.07070         0.74870
C          -3.60570         2.80110        -0.96240
H          -4.00740         3.71000        -0.87490
C          -3.99990         2.03240        -2.13480
H          -4.31070         2.72980        -2.91990
H          -3.15190         1.47030        -2.53580
C          -5.18220         1.07490        -1.85590
H          -5.40030         0.49180        -2.75230
H          -4.94410         0.38390        -1.04530
H          -6.07670         1.63960        -1.58700

