#Put Keywords Here, check Charge and Multiplicity.

 8815

0  1
O           7.05170        -0.59980        -2.40520
C           3.33320        -1.08970        -0.65920
C           2.02560        -1.26660         0.04190
C           3.66360         0.05060        -1.43210
C           4.30110        -2.11790        -0.55910
C           5.90750        -0.82250        -1.88090
C           4.93240         0.18330        -2.02480
C           5.56450        -1.99190        -1.16220
C           1.20610        -0.07460         0.23440
C           8.18470        -1.31090        -2.35680
C          -0.05460         0.05240        -0.19760
H           1.47030        -2.05190        -0.48210
H           2.23590        -1.63860         1.04800
H           2.98630         0.80160        -1.57140
H           4.09660        -2.97370        -0.03670
H           5.14200         1.02760        -2.56140
H           6.23290        -2.75910        -1.06350
H           1.60360         0.68860         0.73380
H           8.97190        -0.75810        -2.86850
H           8.49850        -1.46810        -1.32220
H           8.06040        -2.27760        -2.84940
H          -0.56470         0.88670        -0.01900
H          -0.50470        -0.67890        -0.69560

