#Put Keywords Here, check Charge and Multiplicity.

 2-Methylbutyl 2-methylbutyrate

0  1
C           1.56140        -2.14310        -1.16410
C           2.52980        -1.98930        -0.07900
H           2.68490        -0.91820         0.10980
C           3.93410        -2.59090        -0.41040
H           3.85820        -3.67300        -0.55310
H           4.59520        -2.41870         0.44350
C           4.61600        -1.97340        -1.65430
H           5.63280        -2.36140        -1.74550
H           4.66660        -0.88610        -1.56370
H           4.06370        -2.23100        -2.56030
O           1.05850        -1.13700        -1.65710
O           1.25760        -3.28430        -1.57580
C           1.97170        -2.58010         1.24640
H           2.66070        -2.37010         2.06920
H           1.84190        -3.66140         1.17200
H           1.00860        -2.12570         1.49090
C           0.47720        -3.62100        -2.62120
H           0.88790        -3.18990        -3.54110
H          -0.52470        -3.20210        -2.46470
C           0.36190        -5.16590        -2.78380
H          -0.03150        -5.55730        -1.84090
C           1.75840        -5.82100        -3.04110
H           2.42810        -5.55690        -2.21840
H           2.19450        -5.41400        -3.95890
C           1.73970        -7.36510        -3.14260
H           2.76160        -7.74650        -3.15330
H           1.24980        -7.67920        -4.06470
H           1.21380        -7.79720        -2.28890
C          -0.67610        -5.50290        -3.89480
H          -0.29950        -5.20910        -4.87840
H          -1.61830        -4.98160        -3.71240
H          -0.89540        -6.57190        -3.90470

