#Put Keywords Here, check Charge and Multiplicity.

 3-Methyl-2-cyclohexen-1-one

0  1
C          -2.16590         1.26760        -0.09690
C          -0.82870         1.15540         0.14800
H          -0.30050         1.99700         0.23000
C          -0.19510        -0.03240         0.28940
C          -0.92000        -1.30380         0.13700
H          -0.30820        -2.01720        -0.42370
H          -1.09750        -1.72140         1.13190
C          -2.27830        -1.15850        -0.60530
H          -2.89110        -2.05020        -0.44660
H          -2.08860        -1.06870        -1.68040
C          -3.04070         0.10240        -0.12380
H          -3.89550         0.27420        -0.78460
H          -3.41880        -0.06610         0.88830
O          -2.65940         2.37630        -0.25680
C           1.23650        -0.06360         0.57580
H           1.79480         0.05850        -0.35390
H           1.52230         0.73590         1.26450
H           1.53390        -1.00840         1.03730

