#Put Keywords Here, check Charge and Multiplicity.

 Methyl furfuryl disulfide

0  1
S          -0.39660         2.05690        -0.01280
S           0.01320        -0.00480        -0.02900
C           0.12150         2.62160        -1.66220
H           1.19760         2.47730        -1.76610
H          -0.08360         3.69110        -1.74450
C          -0.56910         1.88700        -2.73180
C          -1.79330         2.20460        -3.31670
H          -2.39010         3.00280        -3.09350
C          -2.05040         1.22760        -4.26590
H          -2.86950         1.16550        -4.87330
C          -0.97710         0.34560        -4.23530
H          -0.87180        -0.48530        -4.82140
O          -0.08540         0.75600        -3.30320
C           1.82470        -0.05390         0.04540
H           2.15150        -1.09120         0.10620
H           2.17150         0.48670         0.92590
H           2.24310         0.40120        -0.85270

