#Put Keywords Here, check Charge and Multiplicity.

 4-Methyl-3-penten-2-one

0  1
C          -0.90530        -1.96500        -0.28310
H          -1.02480        -2.53600        -1.20560
H           0.11900        -2.10990         0.07000
H          -1.58510        -2.36690         0.47040
C          -1.22140        -0.56880        -0.52020
C          -0.33250         0.42700        -0.24900
H           0.61910         0.20050        -0.42580
C          -0.59810         1.66310         0.24020
C           0.49650         2.60690         0.48550
H           0.37110         3.48450        -0.15150
H           1.48510         2.18620         0.28430
H           0.48570         2.93290         1.52930
O          -2.31690        -0.32190        -1.00630
C          -1.95420         2.12380         0.54390
H          -1.96540         3.11040         1.01530
H          -2.45000         1.42770         1.22620
H          -2.53450         2.19980        -0.37670

