#Put Keywords Here, check Charge and Multiplicity.

 2-(1-Methylpropyl)thiazole

0  1
S           2.48550         3.36650         2.20690
C           1.81530         1.93100         1.44260
N           0.53060         1.83710         1.86240
C           0.09630         2.79610         2.72670
H          -0.85330         2.79220         3.10270
C           1.02240         3.78240         3.07520
H           0.88320         4.57370         3.70870
C           2.51200         1.03530         0.48310
H           3.58760         1.18810         0.60850
C           2.16010         1.36460        -1.00010
H           2.66970         0.64930        -1.65220
H           1.08680         1.24740        -1.16610
C           2.57900         2.78280        -1.45090
H           1.97370         3.54020        -0.94790
H           2.44360         2.88430        -2.52920
H           3.63040         2.95830        -1.21960
C           2.23940        -0.46120         0.79980
H           2.83740        -1.09850         0.14570
H           2.51070        -0.69210         1.83150
H           1.18790        -0.71320         0.65150

