#Put Keywords Here, check Charge and Multiplicity.

 4-(Methylthio)-2-butanone

0  1
C           0.89390        -5.89060         3.65010
H           1.15970        -6.92130         3.89580
H           0.61010        -5.38400         4.57530
H           1.77350        -5.39580         3.23480
C          -0.18470        -5.85260         2.68160
C          -1.14870        -4.76610         2.62570
H          -0.65930        -3.83180         2.91560
H          -1.49530        -4.64140         1.59510
C          -2.37530        -5.01170         3.53720
H          -2.90790        -5.91130         3.21880
H          -2.05540        -5.13790         4.57270
O          -0.26700        -6.76120         1.86410
S          -3.51820        -3.59540         3.45050
C          -4.86880        -4.06290         4.57120
H          -5.60880        -3.26410         4.58290
H          -4.48200        -4.20990         5.57870
H          -5.33680        -4.98220         4.22230

