#Put Keywords Here, check Charge and Multiplicity.

 trans-2,cis-6-Nonadienal

0  1
C          -3.32640        -5.49740        -2.04310
H          -2.55910        -6.04340        -1.72900
C          -3.31140        -4.14770        -1.95610
H          -4.12250        -3.65780        -2.25770
C          -2.26650        -3.44080        -1.48460
H          -1.44360        -3.91920        -1.18910
C          -2.26160        -1.98760        -1.38190
H          -3.19280        -1.56550        -1.77110
H          -1.44970        -1.61150        -2.00910
C          -2.04250        -1.50250         0.08040
H          -2.71770        -2.01970         0.76760
H          -1.02840        -1.77350         0.39410
C          -2.19930        -0.06030         0.21300
H          -1.36500         0.48150         0.19810
C          -3.35900         0.61370         0.33190
H          -3.29470         1.60460         0.39220
C          -4.70240         0.05460         0.38490
H          -5.30690         0.52310        -0.39600
H          -4.71980        -1.01960         0.19590
C          -5.36330         0.31240         1.75720
H          -6.33910        -0.17560         1.79130
H          -4.74770        -0.09120         2.56470
H          -5.50240         1.38330         1.91740
O          -4.29170        -6.08520        -2.51030

