#Put Keywords Here, check Charge and Multiplicity.

 8857

0  1
O           0.51940        -0.12820        -0.95350
O           0.66340         1.26710         0.66490
C          -0.66680        -0.75180        -0.89260
C          -1.11690        -1.18600        -2.30150
C           1.15420         0.36910        -0.00750
C           2.50120        -0.07520         0.26630
H          -1.43320        -0.09830        -0.46750
H          -0.57940        -1.64160        -0.26420
H          -0.38130        -1.85640        -2.75150
H          -2.07290        -1.71110        -2.23590
H          -1.24140        -0.31470        -2.94830
H           2.63140        -1.11430        -0.04210
H           2.72130        -0.00650         1.33410
H           3.21070         0.54510        -0.28180

