#Put Keywords Here, check Charge and Multiplicity.

 2-Tridecanone

0  1
C           2.71600        -0.53480        -0.77170
H           3.47840         0.24260        -0.69940
H           2.55850        -0.75330        -1.82890
H           3.08320        -1.43600        -0.27980
C           1.48410        -0.10830        -0.13940
C           0.18170        -0.61710        -0.55080
H          -0.51530        -0.57040         0.29260
H           0.27190        -1.66910        -0.83590
C          -0.40060         0.20230        -1.73360
H          -0.54740         1.23350        -1.39640
H           0.31750         0.21900        -2.55930
C          -1.74880        -0.35120        -2.27420
H          -1.60340        -1.36910        -2.64590
H          -2.47530        -0.38380        -1.46000
C          -2.30340         0.54060        -3.41580
H          -1.58500         0.55520        -4.24080
H          -2.38540         1.55340        -3.01870
C          -3.68570         0.09180        -3.96960
H          -4.41230         0.06920        -3.15190
H          -3.58960        -0.92860        -4.35120
C          -4.23630         0.99090        -5.12040
H          -5.18490         0.56530        -5.45940
H          -3.54230         0.96070        -5.96370
C          -4.47980         2.47040        -4.70390
H          -3.53580         2.91070        -4.37940
H          -5.17200         2.48460        -3.85640
C          -5.03890         3.38560        -5.82640
H          -6.01230         3.00690        -6.15260
H          -4.35760         3.35700        -6.68010
C          -5.18820         4.85680        -5.33940
H          -4.21710         5.21500        -4.98460
H          -5.88290         4.87420        -4.49490
C          -5.70010         5.82510        -6.43630
H          -4.99650         5.83060        -7.27290
H          -6.66720         5.47620        -6.80550
C          -5.86290         7.27650        -5.92440
H          -6.57560         7.31520        -5.09830
H          -4.90420         7.67300        -5.58430
H          -6.23390         7.91230        -6.73140
O           1.54210         0.70560         0.77370

