#Put Keywords Here, check Charge and Multiplicity.

 2,3-Dihydro-2,2,6-trimethylbenzaldehyde

0  1
C           0.22790        -2.36590        -0.22170
H           0.08830        -3.00500         0.52530
C          -0.49080        -1.21040        -0.27910
C          -1.94850        -1.30500        -0.60940
C          -2.45670         0.05690        -1.21880
H          -2.17440         0.13190        -2.27240
H          -3.54690         0.11840        -1.17520
C          -1.88470         1.21320        -0.56170
H          -2.39240         2.06720        -0.54510
C          -0.66570         1.14590        -0.00580
H          -0.31260         1.97800         0.41040
C           0.08790        -0.00880         0.01860
O           1.02070        -2.65720        -1.10540
C           1.50610         0.10990         0.40250
H           2.14550        -0.31950        -0.37120
H           1.83440         1.14290         0.54720
H           1.67580        -0.42310         1.34110
C          -2.72740        -1.60390         0.71710
H          -2.53270        -0.83610         1.47000
H          -3.80480        -1.63270         0.53950
H          -2.43380        -2.56820         1.13790
C          -2.27710        -2.43140        -1.65570
H          -2.09910        -3.42610        -1.24010
H          -1.65270        -2.32150        -2.54680
H          -3.32390        -2.39040        -1.96680

