#Put Keywords Here, check Charge and Multiplicity.

 Fenchyl acetate

0  1
C          -0.05120         0.22580         0.51150
C          -0.66560        -0.95920         1.06210
H          -0.08510        -1.31490         1.91480
H          -1.68700        -0.76840         1.39410
H          -0.69530        -1.74370         0.30390
O          -0.63730         1.30070         0.57850
O           1.07260         0.10860        -0.01610
C           1.76290         0.94830        -0.82140
H           1.74970         1.94430        -0.35670
C           1.27510         0.99000        -2.32710
C           0.73360         2.40350        -2.73420
H           0.63840         2.47240        -3.81930
H          -0.24830         2.58750        -2.29240
H           1.38630         3.20900        -2.39750
C           0.13850        -0.03580        -2.67970
H          -0.04180        -0.05360        -3.75530
H          -0.79840         0.24250        -2.19480
H           0.38000        -1.05050        -2.36550
C           2.60620         0.58410        -3.07380
H           2.44260         0.21310        -4.09060
C           3.71880         1.67160        -3.03820
H           4.56370         1.37020        -3.66570
H           3.38350         2.64950        -3.38390
C           4.12110         1.66590        -1.54440
H           5.19270         1.46980        -1.44910
H           3.90310         2.62380        -1.06570
C           3.26510         0.49750        -0.95060
C           3.88930        -0.11070         0.33730
H           4.91980        -0.41930         0.15370
H           3.32700        -0.98740         0.66270
H           3.88150         0.62830         1.13970
C           3.23140        -0.47660        -2.14350
H           4.22410        -0.81610        -2.46750
H           2.60370        -1.35490        -1.97400

