#Put Keywords Here, check Charge and Multiplicity.

 Butyl2-methylbutyrate

0  1
C           1.45780        -1.88160         1.44610
C           2.03060        -1.39740         0.18810
H           3.06550        -1.75290         0.15790
C           2.08760         0.16560         0.09250
H           2.60040         0.55220         0.97790
H           1.07310         0.57390         0.09530
C           2.83240         0.72160        -1.14350
H           2.99270         1.79520        -1.02370
H           2.24350         0.56260        -2.04810
H           3.80270         0.23530        -1.25970
O           0.94450        -1.11060         2.25020
O           1.50110        -3.10730         1.67970
C           1.28770        -2.03900        -1.02170
H           0.26100        -1.67160        -1.08290
H           1.25910        -3.12790        -0.93190
H           1.80040        -1.80860        -1.95800
C           1.05350        -3.80170         2.73610
H           1.59460        -3.49300         3.63590
H          -0.01410        -3.60700         2.87730
C           1.26620        -5.31430         2.49470
H           0.75710        -5.59640         1.56760
H           2.33660        -5.50280         2.36710
C           0.72490        -6.18410         3.65980
H          -0.33910        -5.97630         3.80430
H           1.25130        -5.92150         4.58170
C           0.90020        -7.69610         3.39820
H           0.50710        -8.26250         4.24460
H           1.95750        -7.94040         3.27320
H           0.35630        -7.99020         2.49750

