#Put Keywords Here, check Charge and Multiplicity.

 3-Ethylpyridine

0  1
C          -0.75790         1.43450        -0.07630
H          -1.76780         1.57930        -0.11890
C          -0.20660         0.13430        -0.14350
C           1.20170         0.01690        -0.10320
H           1.64630        -0.90120        -0.16820
C           2.01260         1.15920         0.01250
H           3.03030         1.07370         0.04120
C           1.39980         2.42150         0.08280
H           1.96410         3.26710         0.16740
N           0.04820         2.52030         0.03420
C          -1.07260        -1.06310        -0.30650
H          -0.61130        -1.93420         0.16830
H          -2.03590        -0.90780         0.18810
C          -1.30550        -1.36010        -1.80440
H          -1.93860        -2.23940        -1.91370
H          -0.35580        -1.54950        -2.30750
H          -1.79660        -0.51410        -2.28830

