#Put Keywords Here, check Charge and Multiplicity.

 Myrtenal

0  1
C           1.48010         0.29520        -0.13140
H           1.13270        -0.57630         0.19630
C           0.63010         1.32070        -0.41080
C          -0.72030         1.19160        -0.27530
H          -1.13180         0.33530         0.02370
C          -1.61100         2.34180        -0.56260
H          -2.17540         2.60290         0.33480
H          -2.32530         2.06810        -1.34330
C          -0.76240         3.58920        -1.02910
H          -1.34190         4.46700        -1.32700
C           0.23840         3.06970        -2.10680
H           0.67830         3.85560        -2.72700
H          -0.11950         2.24890        -2.74080
C           0.45910         3.84020        -0.06770
C           0.25980         3.66910         1.48280
H           1.22480         3.72570         1.99180
H          -0.38620         4.46230         1.86780
H          -0.18840         2.72280         1.77230
C           1.15480         5.23290        -0.27200
H           2.11010         5.25590         0.25810
H           0.52010         6.03150         0.12070
H           1.35800         5.46210        -1.31630
C           1.11270         2.65870        -0.88030
H           2.18790         2.75830        -1.05750
O           2.69220         0.39190        -0.25400

