#Put Keywords Here, check Charge and Multiplicity.

 Furfuryl pentanoate

0  1
C           5.03330         2.50470        -0.45260
C           5.84890         2.98760         0.64840
H           6.81860         3.33530         0.27230
H           5.35140         3.84710         1.10050
C           6.10160         1.90860         1.73540
H           5.14520         1.63500         2.19170
H           6.52550         1.01640         1.26390
C           7.07150         2.39630         2.84510
H           6.65810         3.28760         3.32570
H           8.03020         2.66640         2.39410
C           7.32800         1.32540         3.92630
H           7.77220         0.43390         3.48040
H           8.01580         1.71670         4.67810
H           6.39380         1.05060         4.41840
O           5.53130         2.48560        -1.57400
O           3.85720         2.12130        -0.24330
C           2.97560         1.62290        -1.12920
H           3.40440         0.74410        -1.62240
H           2.76340         2.37010        -1.89920
C           1.69510         1.23980        -0.50490
C           1.35240        -0.02530        -0.02520
H           1.95290        -0.85170         0.01410
C           0.02530         0.03320         0.37180
H          -0.53640        -0.73400         0.74990
C          -0.40280         1.33350         0.13700
H          -1.34690         1.68490         0.31550
O           0.61680         2.05820        -0.38690

