#Put Keywords Here, check Charge and Multiplicity.

 2-Heptylfuran

0  1
O          -0.40190         1.10140        -0.05890
C           0.16160        -0.13060         0.01130
C           1.54930         0.00610         0.03340
H           2.23700        -0.74820         0.08020
C           1.82350         1.36340        -0.00560
H           2.74570         1.80010         0.01800
C           0.59880         2.01440        -0.07160
H           0.46890         3.02630        -0.10970
C          -0.59530        -1.39650         0.11750
H          -0.04680        -2.19330        -0.39210
H          -1.56490        -1.28020        -0.37220
C          -0.80840        -1.76770         1.60700
H          -1.38890        -0.97510         2.08820
H           0.17640        -1.80320         2.07750
C          -1.54320        -3.11920         1.84040
H          -2.52320        -3.06720         1.35700
H          -0.98370        -3.92790         1.36030
C          -1.75960        -3.46560         3.34650
H          -2.32180        -4.40310         3.40330
H          -2.37270        -2.68780         3.81310
C          -0.43790        -3.63630         4.14980
H           0.16190        -4.41320         3.66850
H           0.12770        -2.70420         4.13020
C          -0.63830        -4.00980         5.64050
H          -1.15510        -4.97060         5.71140
H          -1.25500        -3.25090         6.12980
C           0.71000        -4.11020         6.39380
H           0.52820        -4.35560         7.44200
H           1.25300        -3.16180         6.34770
H           1.32900        -4.89350         5.94910

