#Put Keywords Here, check Charge and Multiplicity.

 7165

0  1
O          -2.59560         2.46320        -0.01100
O          -2.69180         0.38240        -0.05890
C          -0.58700         1.28430        -0.04240
C          -2.87380         3.20260         1.07420
C           0.06170         0.03240         0.12350
C           0.23470         2.42800        -0.22680
C          -1.98470         1.38120        -0.02600
C           1.46440        -0.07600         0.09420
C           1.63850         2.32480        -0.24050
C           2.25360         1.07070        -0.09270
C          -3.68670         4.45110         0.67660
H          -1.94860         3.52850         1.55790
H          -3.45620         2.62170         1.79650
H          -0.48110        -0.82150         0.27460
H          -0.17630         3.35570        -0.35820
H           1.90910        -0.99100         0.20420
H           2.21230         3.16190        -0.36320
H          -3.18740         4.98990        -0.13170
H          -3.78000         5.11830         1.53620
H          -4.68720         4.16220         0.34750
H           3.27190         0.98970        -0.12370

