#Put Keywords Here, check Charge and Multiplicity.

 cis-3-Hexenyl hexanoate

0  1
C           0.42970         1.92660         3.91580
C           0.80560         1.19880         2.71480
H           1.71130         0.61580         2.90740
H           0.01510         0.48470         2.47290
C           1.07840         2.12220         1.49220
H           0.15440         2.62810         1.19920
H           1.80520         2.88590         1.78230
C           1.63790         1.34470         0.26630
H           0.92010         0.56950        -0.01300
H           2.57140         0.85320         0.55500
C           1.91110         2.24250        -0.97410
H           2.62670         3.02630        -0.71100
H           0.98130         2.72590        -1.28550
C           2.47630         1.44990        -2.17690
H           2.64960         2.12180        -3.02050
H           1.77230         0.67640        -2.49120
H           3.42460         0.97800        -1.91150
O           1.18680         1.89490         4.88010
O          -0.64870         2.56160         3.94830
C          -1.13920         3.33210         4.94000
H          -0.43920         4.14820         5.14700
H          -1.25990         2.73440         5.84980
C          -2.50600         3.94850         4.55810
H          -3.23710         3.14930         4.40840
H          -2.40380         4.46600         3.60490
C          -2.99170         4.82750         5.61730
H          -3.20040         4.38600         6.48570
C          -3.16930         6.16200         5.56500
H          -3.49680         6.60440         6.39570
C          -2.94880         7.03140         4.41750
H          -2.75150         8.04530         4.77830
H          -2.06250         6.72900         3.85610
C          -4.17620         7.08680         3.47790
H          -3.95150         7.71560         2.61360
H          -4.44090         6.09060         3.11780
H          -5.03670         7.51290         3.99820

