#Put Keywords Here, check Charge and Multiplicity.

 2-Isopropyl-5-methyl-Z-hexenal

0  1
C          -2.02290         2.64990         0.00220
H          -3.01560         2.65310         0.00420
C          -1.33370         1.45560         0.04430
C           0.02110         1.33190         0.07670
H           0.38950         0.40950         0.11420
C           1.08010         2.33740         0.04150
H           1.76600         2.09640         0.85940
H           0.73310         3.34600         0.24240
C           1.89780         2.31420        -1.29050
H           2.45010         1.36830        -1.32220
C           1.01510         2.36590        -2.57090
H           0.41250         3.27590        -2.59210
H           1.64070         2.33310        -3.46580
H           0.34820         1.50290        -2.61040
O          -1.53300         3.76590        -0.03800
C           2.94710         3.45990        -1.30710
H           3.58830         3.39640        -0.42700
H           3.57940         3.38720        -2.19350
H           2.45550         4.43490        -1.31020
C          -2.15020         0.20580         0.02650
H          -3.22410         0.43360         0.01790
C          -1.92970        -0.62360        -1.27440
H          -2.62120        -1.46890        -1.30240
H          -0.91270        -1.01560        -1.33580
H          -2.11600        -0.00100        -2.15440
C          -1.95330        -0.65290         1.30950
H          -2.65670        -1.48730         1.31390
H          -0.94430        -1.06320         1.37060
H          -2.13630        -0.04310         2.19780

