#Put Keywords Here, check Charge and Multiplicity.

 Methyl dihydrojasmonate

0  1
C          -1.96280         0.66240        -1.03780
H          -2.35410         1.16770        -1.92700
C          -2.57510         1.25420         0.12490
C          -3.46240         0.36790         0.81850
H          -4.48900         0.74420         0.79470
H          -3.14160         0.20760         1.85200
C          -3.34590        -0.84230         0.04770
C          -4.10290        -2.03470         0.40240
H          -4.30820        -2.05800         1.47560
H          -3.55670        -2.94520         0.15850
H          -5.05380        -2.03620        -0.13470
C          -2.51520        -0.68420        -0.99890
C          -2.19440        -1.70260        -2.00270
H          -1.94150        -1.21130        -2.94690
H          -3.07110        -2.32530        -2.20220
C          -1.00240        -2.59360        -1.55350
H          -0.11600        -1.97020        -1.45140
H          -1.22030        -3.02910        -0.57420
C          -0.64670        -3.73660        -2.53670
H          -0.42490        -3.32140        -3.52410
H          -1.49920        -4.41350        -2.63110
C           0.58160        -4.54210        -2.05050
H           0.37410        -5.00000        -1.08070
H           0.81820        -5.33190        -2.76500
H           1.45300        -3.88960        -1.95260
C          -0.50490         0.73760        -1.02680
O           0.06220         1.28180        -1.96910
O           0.13370         0.22980        -0.08030
O          -2.39160         2.41210         0.47610
C           1.45350         0.05190         0.06530
H           1.97070         1.01180         0.12070
H           1.62710        -0.49180         0.99380
H           1.86740        -0.53810        -0.75700

