#Put Keywords Here, check Charge and Multiplicity.

 2-Methylpentanal

0  1
C           1.87100        -2.84260        -2.46730
H           1.41050        -3.69590        -2.67430
C           1.65420        -2.21390        -1.16890
H           0.56920        -2.12490        -1.04730
C           2.25600        -0.77030        -1.08140
H           1.88720        -0.19310        -1.93490
H           3.34460        -0.82690        -1.17070
C           1.89780         0.02000         0.20580
H           2.30760        -0.49380         1.07710
H           0.81010         0.06630         0.30740
C           2.45520         1.46190         0.20120
H           2.18980         1.96370         1.13350
H           2.03560         2.02920        -0.63210
H           3.54390         1.45320         0.11420
O           2.59300        -2.37360        -3.33580
C           2.17780        -3.16470        -0.05290
H           3.27000        -3.19560        -0.05060
H           1.80190        -4.18150        -0.19650
H           1.83530        -2.82920         0.92620

