#Put Keywords Here, check Charge and Multiplicity.

 3-Octen-2-one

0  1
C           2.13790        -3.42540         0.37670
H           2.04130        -3.90730        -0.59870
H           3.19700        -3.38020         0.64010
H           1.63990        -4.04930         1.12320
C           1.54270        -2.09920         0.32140
C           2.27100        -1.00210        -0.03900
H           3.22660        -1.14490        -0.28340
C           1.80660         0.26080        -0.09620
H           0.85750         0.45060         0.13330
C           2.62790         1.38600        -0.51880
H           2.25340         2.30140        -0.04830
H           3.66010         1.24670        -0.17920
C           2.60350         1.55960        -2.06040
H           2.96080         0.63800        -2.52980
H           1.57120         1.73300        -2.38050
C           3.48430         2.74000        -2.54750
H           4.52060         2.57000        -2.23840
H           3.13830         3.66800        -2.08180
C           3.45030         2.91480        -4.08140
H           2.43250         3.11300        -4.41990
H           4.08270         3.75760        -4.36880
H           3.82250         2.01660        -4.57510
O           0.34660        -2.01380         0.57500

