#Put Keywords Here, check Charge and Multiplicity.

 Pentyl 2-furyl ketone

0  1
C          -0.94220        -0.78450        -0.33520
O          -1.98270        -1.37850        -0.07230
O           0.24470         1.34070        -0.22330
C          -0.84220         0.55760         0.00510
C          -1.81430         1.34270         0.63190
H          -2.74360         1.03950         0.93140
C          -1.29360         2.61770         0.77850
H          -1.75920         3.42230         1.20070
C          -0.01530         2.58680         0.23910
H           0.62720         3.37830         0.19760
C           0.16080        -1.48310        -0.99180
H           0.38490        -0.96550        -1.92950
H           1.04200        -1.41580        -0.34650
C          -0.09900        -2.98450        -1.31110
H          -0.32030        -3.50820        -0.37780
H          -0.97640        -3.05850        -1.95840
C           1.08960        -3.69750        -2.00730
H           1.31570        -3.18720        -2.94870
H           1.97330        -3.63790        -1.36450
C           0.77180        -5.18940        -2.29980
H          -0.11050        -5.25410        -2.94420
H           0.54680        -5.70460        -1.36080
C           1.93870        -5.92440        -2.99330
H           1.66290        -6.96660        -3.17530
H           2.82840        -5.90440        -2.36030
H           2.16820        -5.45190        -3.95080

