#Put Keywords Here, check Charge and Multiplicity.

 4-Oxoisophorone

0  1
O          -2.44470        -1.78120        -1.31420
C          -1.97530        -1.10150        -0.41120
C          -0.63730        -1.09030        -0.18130
H          -0.11260        -1.89860        -0.43970
C          -0.01050        -0.02540         0.37500
C           1.43720        -0.12600         0.59400
H           1.95020        -0.19530        -0.36840
H           1.85670         0.72770         1.13060
H           1.66880        -1.02040         1.17870
C          -0.73410         1.11650         0.69430
C          -2.20950         1.19520         0.52820
C          -2.87510         1.92740         1.74270
H          -2.62200         1.43170         2.68240
H          -2.53960         2.96550         1.80790
H          -3.96320         1.93650         1.64200
C          -2.52870         1.99780        -0.77700
H          -3.60890         2.06300        -0.93450
H          -2.08990         1.51350        -1.65200
H          -2.13330         3.01500        -0.71960
C          -2.82210        -0.25320         0.41130
H          -3.84240        -0.22440         0.01910
H          -2.87610        -0.71700         1.40240
O          -0.14560         2.12970         1.05900

