#Put Keywords Here, check Charge and Multiplicity.

 7762

0  1
O           1.30370         1.40050         2.07670
O           2.99440         0.46440         1.26180
C           0.47130        -0.77030        -0.17280
C           1.18410         0.60950        -0.16970
C          -0.34500        -1.02340        -1.46050
C           1.85360         0.87160         1.09540
C           0.72420         2.60680         2.17320
C           0.15780         2.79820         3.59350
H           1.21900        -1.56270        -0.07640
H          -0.20790        -0.84260         0.68190
H           0.45500         1.39510        -0.37780
H           1.91930         0.63330        -0.97860
H          -0.79920        -2.01590        -1.41630
H           0.30090        -0.97450        -2.33980
H          -1.14100        -0.28210        -1.56250
H          -0.10090         2.71120         1.46400
H           1.46190         3.39080         1.97630
H          -0.59250         2.03450         3.80700
H          -0.31280         3.77980         3.67860
H           0.95890         2.72680         4.33080

