#Put Keywords Here, check Charge and Multiplicity.

 3-Acetylpyridine

0  1
C           0.34130         0.95920         0.00000
H           1.24390         0.48280         0.00000
C          -0.88030         0.23520         0.00000
C          -2.06870         1.01860         0.00000
H          -2.98980         0.57380         0.00000
C          -2.02110         2.42400         0.00000
H          -2.88110         2.97650         0.00000
C          -0.77180         3.06180         0.00000
H          -0.70770         4.08100         0.00000
N           0.35810         2.31570         0.00000
C          -0.92120        -1.17190         0.00000
O          -2.00150        -1.75210         0.00000
C           0.26030        -2.02550         0.00000
H           0.86380        -1.83210        -0.88880
H           0.86380        -1.83210         0.88880
H           0.00210        -3.08710         0.00000

