#Put Keywords Here, check Charge and Multiplicity.

 2,4-Hexadienal

0  1
C          -1.62060        -4.22000        -0.00140
H          -0.66600        -4.49480        -0.00230
C          -1.97210        -2.91170        -0.00010
H          -2.94510        -2.69780         0.00080
C          -1.07640        -1.90480         0.00000
H          -0.10560        -2.13920        -0.00100
C          -1.41940        -0.58350         0.00130
H          -2.38570        -0.33990         0.00220
C          -0.51210         0.41100         0.00130
H           0.46000         0.19070         0.00040
C          -0.85370         1.81790         0.00270
H          -0.42920         2.28980        -0.88410
H          -1.93080         1.99450         0.00370
H          -0.42790         2.28840         0.88950
O          -2.46610        -5.10360        -0.00140

