#Put Keywords Here, check Charge and Multiplicity.

 Isobutyl trans-2-butenoate

0  1
C          -0.27460        -1.12510         0.02060
C          -0.97900        -2.27750         0.21120
H          -0.52920        -3.00570         0.72520
C          -2.22800        -2.51670        -0.23140
H          -2.71280        -1.81790        -0.74790
C          -2.94160        -3.75960        -0.00130
H          -3.20160        -4.20820        -0.96110
H          -2.36180        -4.48830         0.57190
H          -3.86290        -3.55040         0.54420
O           0.85660        -1.07580         0.49550
O          -0.74510        -0.14200        -0.60320
C          -0.16430         1.04870        -0.85660
H           0.12980         1.51610         0.08730
H           0.73950         0.87570        -1.44870
C          -1.08270         2.03050        -1.64000
H          -1.32630         1.56540        -2.59950
C          -0.33140         3.35790        -1.94700
H          -0.96370         4.02700        -2.53520
H           0.57520         3.15800        -2.52370
H          -0.04860         3.86990        -1.02340
C          -2.42110         2.31300        -0.90400
H          -3.03440         3.00110        -1.49050
H          -2.24100         2.75750         0.07730
H          -2.98360         1.38690        -0.77300

