#Put Keywords Here, check Charge and Multiplicity.

 2-Methoxy-3-(1-methylpropyl)pyrazine

0  1
C           2.37500         3.33540         1.36400
C           1.28150         2.42970         1.40380
N           2.40490         4.35560         2.26900
N           0.33390         2.63200         2.36400
C           0.37910         3.64160         3.26710
H          -0.35490         3.73970         3.96990
C           1.45140         4.54390         3.21350
H           1.51730         5.32490         3.86930
C           1.13780         1.30390         0.42450
H           2.13150         0.87030         0.27090
C           0.63060         1.86770        -0.94540
H           1.25370         2.71680        -1.24000
H          -0.39110         2.23900        -0.82860
C           0.66160         0.87000        -2.12720
H           1.65750         0.43620        -2.23130
H           0.41390         1.39250        -3.05410
H          -0.06710         0.07180        -1.97930
C           0.25210         0.14050         0.96130
H           0.29380        -0.71630         0.28680
H           0.61220        -0.19040         1.93910
H          -0.78980         0.45480         1.06020
O           3.30300         3.18490         0.50300
C           4.40230         3.92020         0.30020
H           4.98710         3.46360        -0.50000
H           4.13640         4.93560         0.00050
H           5.01650         3.95520         1.20250

