#Put Keywords Here, check Charge and Multiplicity.

 3-Methyl-2-cyclopenten-1-one

0  1
C          -1.87130        -0.80010        -0.62740
C          -0.70130        -1.11330        -0.07520
H          -0.42790        -2.03710         0.16540
C           0.05240        -0.02630         0.10180
C          -0.63250         1.15510        -0.36450
H          -0.77510         1.87100         0.44910
H          -0.06830         1.62550        -1.17390
C          -1.98870         0.61080        -0.86890
H          -2.12850         0.81090        -1.93630
H          -2.82590         1.02560        -0.29870
O          -2.74340        -1.61070        -0.90520
C           1.39440        -0.01510         0.65090
H           2.11390        -0.03150        -0.17030
H           1.55690         0.88640         1.24520
H           1.57270        -0.87900         1.29480

