#Put Keywords Here, check Charge and Multiplicity.

 cis-3-Hexenyl2-methylbutanoate

0  1
C          -3.54870         0.73850        -0.36700
C          -2.31610         1.48800        -0.09280
H          -2.62520         2.41390         0.40370
C          -1.53380         1.90270        -1.38890
H          -2.21910         2.43920        -2.05140
H          -1.19490         1.00650        -1.91800
C          -0.31540         2.83100        -1.16830
H           0.50410         2.28980        -0.69320
H           0.04080         3.20880        -2.12870
H          -0.59200         3.68290        -0.54540
O          -3.83530         0.39430        -1.50940
O          -4.31360         0.46420         0.58660
C          -1.41110         0.70360         0.90450
H          -1.03800        -0.21440         0.44590
H          -1.96050         0.44190         1.81220
H          -0.55720         1.30910         1.21180
C          -5.43570        -0.28110         0.60350
H          -5.21130        -1.29100         0.24480
H          -6.18520         0.16470        -0.05910
C          -6.00340        -0.36930         2.04390
H          -6.25370         0.63910         2.38850
H          -5.22410        -0.74660         2.71010
C          -7.21940        -1.17560         2.10830
H          -8.01840        -0.79520         1.65050
C          -7.39280        -2.36150         2.72010
H          -8.30700        -2.75550         2.68470
C          -6.39780        -3.14540         3.43790
H          -6.63090        -4.20540         3.30170
H          -5.39740        -2.99870         3.02670
C          -6.38810        -2.84770         4.95390
H          -5.67350        -3.50450         5.45360
H          -6.09720        -1.81290         5.13960
H          -7.37530        -3.02310         5.38530

