#Put Keywords Here, check Charge and Multiplicity.

 10883

0  1
O           2.96450        -5.10760         0.10110
O           1.75020        -4.67050        -1.56130
O           0.02550        -0.61950         0.69000
C           2.06820        -2.90500        -0.10630
C           0.80260        -2.79170         0.78600
C           0.65970        -1.44910         1.32870
C           2.30360        -4.27320        -0.54590
C           4.24320        -5.04300         0.50810
C           1.26510        -1.04870         2.58310
C           4.60300        -6.28990         1.34220
H           1.95140        -2.25200        -0.97800
H           2.93510        -2.54230         0.44710
H          -0.08250        -3.04540         0.19100
H           0.85870        -3.51520         1.60610
H           4.41140        -4.15970         1.12800
H           4.91060        -4.99410        -0.35660
H           0.56530        -1.21860         3.40220
H           2.17760        -1.61660         2.77610
H           1.52460         0.01090         2.56150
H           3.97310        -6.33870         2.23350
H           5.64800        -6.23570         1.65360
H           4.46070        -7.20350         0.75970

