#Put Keywords Here, check Charge and Multiplicity.

 Dicyclohexyl disulfide

0  1
S           0.94100         2.62780         0.48150
S           1.28940         0.72120         1.28660
C          -0.79840         2.99020         0.88620
H          -0.92220         2.86850         1.96600
C          -1.77580         2.02970         0.15090
H          -1.63610         1.01370         0.52370
H          -1.55940         2.03260        -0.92130
C          -3.25980         2.42130         0.37150
H          -3.52340         2.24910         1.41830
H          -3.89630         1.78040        -0.24330
C          -3.53060         3.90510         0.01520
H          -3.40630         4.04760        -1.06200
H          -4.56290         4.15690         0.27010
C          -2.56810         4.85390         0.77350
H          -2.77870         4.80530         1.84610
H          -2.74000         5.88190         0.44460
C          -1.08710         4.47360         0.52050
H          -0.44840         5.13220         1.11550
H          -0.85620         4.64800        -0.53500
C           1.64260        -0.38030        -0.12850
H           2.32530        -1.13160         0.28040
C           2.36740         0.29970        -1.32880
H           3.29410         0.76850        -0.98270
H           1.73340         1.08250        -1.75720
C           2.69490        -0.71710        -2.45400
H           3.44670        -1.42540        -2.09330
H           3.12080        -0.18500        -3.30850
C           1.43240        -1.49160        -2.91580
H           0.75200        -0.80380        -3.42520
H           1.72510        -2.26440        -3.63110
C           0.68990        -2.15240        -1.72340
H           1.31380        -2.95080        -1.31050
H          -0.24060        -2.60440        -2.08020
C           0.36510        -1.12820        -0.60330
H          -0.08480        -1.66270         0.23770
H          -0.36770        -0.41400        -0.98350

