#Put Keywords Here, check Charge and Multiplicity.

 2-Isopropylphenol

0  1
C           2.28800         0.88870        -0.35050
C           1.69580        -0.33560         0.06830
C           2.45450        -1.52480        -0.08630
H           2.07110        -2.42890         0.19710
C           3.75060        -1.50000        -0.62930
H           4.27860        -2.36850        -0.73230
C           4.32020        -0.28120        -1.02800
H           5.26440        -0.25730        -1.41950
C           3.59040         0.91120        -0.88960
H           4.01230         1.79770        -1.18380
C           0.31410        -0.39870         0.65700
H          -0.11400         0.60710         0.70690
C           0.33130        -0.91310         2.12400
H          -0.67340        -0.87120         2.54910
H           0.68400        -1.94440         2.18140
H           0.98510        -0.28580         2.73400
C          -0.65570        -1.21760        -0.24000
H          -1.66830        -1.17860         0.16660
H          -0.35190        -2.26420        -0.30310
H          -0.67770        -0.79860        -1.24860
O           1.67780         1.98410        -0.25620
H           2.05640         2.73350        -0.52340

