#Put Keywords Here, check Charge and Multiplicity.

 Maltyl isobutyrate

0  1
C          -2.73640         0.49450         0.30230
C          -1.71280         1.47100         0.48900
O          -0.40600         1.09340         0.33570
C           0.00280        -0.16800         0.02950
H           0.99820        -0.37250        -0.08440
C          -0.96030        -1.17030        -0.11820
H          -0.67070        -2.12840        -0.33130
C          -2.31800        -0.83280         0.02580
O          -3.15120        -1.76240        -0.10420
C          -1.89910         2.88600         0.85910
H          -0.94110         3.37590         1.04540
H          -2.49120         2.95630         1.77000
H          -2.38580         3.41850         0.04380
O          -4.01590         0.61760         0.35350
C          -4.90890         1.48310         0.45470
O          -4.70600         2.68710         0.50160
C          -6.29820         1.02760         0.47320
H          -6.95640         1.89750         0.58580
C          -6.67730         0.35560        -0.87570
H          -7.74070         0.10730        -0.89140
H          -6.10730        -0.56360        -1.03120
H          -6.47650         1.03570        -1.70850
C          -6.58030         0.09650         1.68360
H          -7.64310        -0.15080         1.72800
H          -6.01280        -0.83340         1.60420
H          -6.30780         0.59650         2.61560

