#Put Keywords Here, check Charge and Multiplicity.

 4-Methylpentanoic acid

0  1
C           0.12000         0.07700         0.04790
C          -0.30050        -1.21240         0.56820
H          -0.03870        -1.22850         1.62740
H          -1.38790        -1.31320         0.49550
C           0.36070        -2.41110        -0.17610
H           0.07840        -2.34310        -1.23170
H           1.44800        -2.31040        -0.12370
C          -0.03530        -3.83310         0.34740
H          -1.12130        -3.93780         0.25640
C           0.60660        -4.94080        -0.53780
H           1.69730        -4.89500        -0.48910
H           0.30100        -4.82460        -1.58090
H           0.28710        -5.93060        -0.20500
O          -0.69020         0.86400        -0.41850
O           1.29950         0.41060         0.08920
H           1.55300         1.19660        -0.21780
C           0.33160        -4.07170         1.84150
H           0.08200        -5.09210         2.13910
H           1.39830        -3.91470         2.00680
H          -0.22400        -3.39490         2.49250

