#Put Keywords Here, check Charge and Multiplicity.

 2,2,4,4,6,6-Hexamethyl-s-trithiane

0  1
C           1.31410        -0.03100        -2.97440
S           1.81000         1.72580        -2.99000
C           1.31430         2.59110        -1.46090
S           1.86450         1.72650         0.04990
C           1.36890        -0.03050         0.05270
S           1.86450        -0.90680        -1.47010
C          -0.12790        -0.24310         0.42090
H          -0.79550         0.18130        -0.31490
H          -0.36000         0.22490         1.38100
H          -0.35980        -1.30860         0.49610
C           2.22640        -0.68360         1.18420
H           3.29660        -0.56950         0.98670
H           2.01800        -0.22250         2.15360
H           2.01810        -1.75360         1.26970
C          -0.19490         2.96910        -1.43400
H          -0.83530         2.09920        -1.42070
H          -0.46160         3.55780        -2.31540
H          -0.42920         3.56060        -0.54510
C           2.13030         3.92380        -1.47610
H           3.20690         3.72930        -1.49530
H           1.88710         4.52560        -2.35600
H           1.91890         4.52630        -0.58840
C           2.12970        -0.68480        -4.13600
H           3.20640        -0.57100        -3.97750
H           1.91810        -1.75480        -4.21350
H           1.88640        -0.22400        -5.09730
C          -0.19520        -0.24320        -3.28790
H          -0.46170         0.22430        -4.23930
H          -0.83540         0.18220        -2.52870
H          -0.43020        -1.30860        -3.35380

