#Put Keywords Here, check Charge and Multiplicity.

 o-Cresol

0  1
C          -0.19010        -1.15840        -0.25000
C          -0.31550         0.21520         0.08500
C          -1.58820         0.70760         0.46320
H          -1.71760         1.69590         0.68990
C          -2.70360        -0.14720         0.52940
H          -3.61780         0.22030         0.80440
C          -2.56350        -1.50930         0.21620
H          -3.37320        -2.13190         0.26730
C          -1.30990        -2.01350        -0.17190
H          -1.21910        -3.00540        -0.39910
C           0.84390         1.14130         0.01790
H           0.90940         1.55730        -0.98770
H           0.74360         1.96280         0.72970
H           1.77950         0.62520         0.24290
O           0.91510        -1.63100        -0.62740
H           0.99720        -2.48000        -0.84600

