#Put Keywords Here, check Charge and Multiplicity.

 31283

0  1
O          -1.79110         3.51150        11.48660
O          -1.15270         1.53860        11.71010
C          -4.51350         0.66270         2.78250
C          -4.67850         0.68070         4.32670
C          -5.76520         0.09920         2.05580
C          -3.42390         1.24120         5.05040
C          -5.59970         0.08070         0.51470
C          -3.56660         1.25890         6.59440
C          -6.84640        -0.48050        -0.21550
C          -2.29150         1.80800         7.29070
C          -6.66480        -0.49190        -1.75640
C          -2.41710         1.83160         8.83550
C          -7.90980        -1.05250        -2.49230
C          -1.11940         2.32350         9.53490
C          -7.72990        -1.06410        -4.02590
C          -1.32550         2.49080        10.96420
C          -1.36140         4.77950        11.42690
C          -2.32040         5.64870        12.26210
H          -4.32530         1.68240         2.43170
H          -3.64450         0.04940         2.52370
H          -4.86740        -0.33910         4.67650
H          -5.54570         1.29630         4.58580
H          -5.95040        -0.91960         2.40860
H          -6.63210         0.71350         2.31610
H          -2.55970         0.62760         4.78150
H          -3.24180         2.26070         4.69930
H          -5.41230         1.10000         0.16480
H          -4.73160        -0.53300         0.25750
H          -4.42420         1.88000         6.86800
H          -3.75670         0.24160         6.94910
H          -7.71710         0.13150         0.03570
H          -7.03610        -1.50130         0.12790
H          -2.10200         2.82310         6.93010
H          -1.43760         1.18450         7.01190
H          -6.47530         0.52820        -2.10250
H          -5.79470        -1.10410        -2.01030
H          -3.25170         2.48450         9.10600
H          -2.64950         0.82240         9.18760
H          -8.10380        -2.07520        -2.15380
H          -8.78450        -0.44250        -2.24600
H          -0.32040         1.59500         9.36370
H          -0.79170         3.26440         9.09040
H          -8.62870        -1.46560        -4.49910
H          -7.56310        -0.05090        -4.39560
H          -6.87980        -1.68980        -4.30300
H          -1.35440         5.15680        10.39930
H          -0.35120         4.86140        11.84230
H          -2.36460         5.28620        13.29290
H          -3.32500         5.61380        11.83210
H          -1.97320         6.68420        12.26760

