#Put Keywords Here, check Charge and Multiplicity.

 Ethyl 2-methylpentanoate

0  1
C          -0.88950         1.55270        -0.98870
C          -1.12950         2.96570        -1.28500
H          -1.78670         3.03210        -2.16120
C           0.17400         3.75480        -1.64410
H          -0.11220         4.77900        -1.90430
H           0.82330         3.81190        -0.76620
C           0.98330         3.16490        -2.83620
H           0.34760         3.12710        -3.72520
H           1.29320         2.14480        -2.60110
C           2.25520         3.97480        -3.17460
H           1.99620         4.99190        -3.47350
H           2.92220         4.01620        -2.31210
H           2.78670         3.49480        -3.99830
O          -1.41880         0.70440        -1.69990
O          -0.14690         1.22880        -0.03440
C          -1.90880         3.65000        -0.12460
H          -2.82880         3.10310         0.09800
H          -1.30550         3.70000         0.78500
H          -2.18820         4.66700        -0.40940
C           0.27120         0.00430         0.34100
H           0.83140        -0.46360        -0.47300
H          -0.58480        -0.63090         0.58700
C           1.18800         0.08700         1.57520
H           1.49110        -0.92030         1.87230
H           0.65750         0.55510         2.40800
H           2.08320         0.66800         1.34070

