#Put Keywords Here, check Charge and Multiplicity.

 Ethyl 2-methyl-4-pentenoate

0  1
C          -0.78580         1.42610        -1.13900
C          -1.10360         2.82770        -1.43240
H          -1.62000         3.22500        -0.55130
C          -2.07030         3.00630        -2.65450
H          -1.57980         2.62180        -3.55320
H          -2.96100         2.39040        -2.49430
C          -2.47940         4.37930        -2.92190
H          -1.92040         4.92190        -3.54030
C          -3.55650         4.96080        -2.37710
H          -4.14820         4.46980        -1.75130
H          -3.77420         5.90460        -2.59480
O          -1.15730         0.52330        -1.88370
O          -0.11630         1.17310        -0.11440
C           0.21640         3.64090        -1.60270
H           0.00160         4.70140        -1.74980
H           0.84320         3.55800        -0.71030
H           0.78590         3.27750        -2.46100
C           0.31560        -0.00410         0.36550
H           0.91490        -0.52370        -0.38890
H          -0.53770        -0.63220         0.63750
C           1.18970         0.22990         1.60970
H           1.54120        -0.72410         2.00520
H           0.61440         0.74050         2.38430
H           2.05640         0.84000         1.34650

