#Put Keywords Here, check Charge and Multiplicity.

 Ethyl undecanoate

0  1
C          -0.87960         1.45150        -1.02110
C          -1.18250         2.85060        -1.26280
H          -1.89930         2.94040        -2.08520
H          -1.65840         3.26550        -0.36920
C           0.08500         3.68140        -1.60430
H           0.62180         3.19940        -2.42580
H           0.74400         3.70000        -0.73100
C          -0.23820         5.14330        -2.01390
H          -0.88110         5.13330        -2.89900
H          -0.78570         5.62950        -1.20160
C           1.04140         5.96630        -2.32940
H           1.68920         5.97700        -1.44830
H           1.58470         5.48190        -3.14690
C           0.71280         7.42650        -2.73540
H           0.06970         7.40520        -3.62040
H           0.15830         7.90480        -1.92250
C           1.97170         8.28020        -3.04890
H           2.54550         7.79840        -3.84460
H           2.60260         8.33350        -2.15640
C           1.58600         9.71760        -3.49070
H           1.04580        10.20580        -2.67320
H           0.91260         9.64310        -4.34580
C           2.80450        10.59800        -3.87730
H           3.46400        10.67350        -3.00730
H           3.36990        10.11370        -4.67890
C           2.42800        12.04270        -4.31230
H           3.35720        12.59520        -4.48560
H           1.89670        12.54000        -3.49650
C           1.56870        12.14610        -5.59660
H           2.01830        11.57640        -6.41400
H           0.55800        11.78010        -5.41830
H           1.49510        13.19270        -5.90300
O          -1.34870         0.60270        -1.77210
O          -0.14560         1.14730        -0.05970
C           0.28340        -0.05880         0.34110
H           0.85280        -0.53830        -0.45840
H          -0.56930        -0.69320         0.59430
C           1.18580         0.09260         1.57690
H           1.51550        -0.88990         1.91660
H           0.63660         0.58080         2.38550
H           2.06350         0.69310         1.32660

