#Put Keywords Here, check Charge and Multiplicity.

 2-Methylbutyl isovalerate

0  1
C          -4.51120        -1.52760        -0.21110
C          -4.15780        -2.90620        -0.51450
H          -3.75420        -2.92690        -1.53150
H          -5.06110        -3.52490        -0.51550
C          -3.11230        -3.54640         0.45790
H          -2.16320        -3.01570         0.32870
C          -3.50810        -3.42280         1.95730
H          -4.46330        -3.91610         2.14720
H          -2.74620        -3.88130         2.59090
H          -3.59210        -2.37410         2.24800
C          -2.85420        -5.03680         0.09100
H          -2.51260        -5.12170        -0.94270
H          -2.08200        -5.46100         0.73720
H          -3.76570        -5.62930         0.20670
O          -5.67540        -1.26430         0.07590
O          -3.62490        -0.64890        -0.24450
C          -3.68850         0.63230         0.15840
H          -3.91590         0.66200         1.22790
H          -4.50160         1.14800        -0.35920
C          -2.35700         1.39810        -0.09950
H          -2.53700         2.44520         0.16680
C          -1.88280         1.37180        -1.58860
H          -1.64070         0.34770        -1.88040
H          -0.96310         1.95890        -1.67470
C          -2.89310         1.94570        -2.61110
H          -3.17510         2.96280        -2.33610
H          -2.43730         1.96860        -3.60270
H          -3.79170         1.32860        -2.66130
C          -1.22720         0.89620         0.84520
H          -1.54230         0.96640         1.88840
H          -0.33010         1.50890         0.72550
H          -0.97160        -0.14320         0.62670

