#Put Keywords Here, check Charge and Multiplicity.

 Isoamyl isobutyrate

0  1
C           1.94980        -0.65960         1.05300
C           2.19990        -0.14420        -0.29010
H           1.27260        -0.19610        -0.87320
C           3.24610        -1.00940        -1.04510
H           4.22650        -0.94840        -0.56740
H           2.93160        -2.05540        -1.06280
H           3.34430        -0.66710        -2.07780
C           2.61150         1.35220        -0.24660
H           3.56540         1.48480         0.26870
H           1.85050         1.93970         0.27270
H           2.70910         1.74650        -1.26110
O           0.80800        -0.98880         1.36160
O           2.89800        -0.74940         1.85990
C           2.93240        -1.26900         3.09920
H           2.22740        -0.73710         3.74410
H           2.65090        -2.32420         3.05280
C           4.36300        -1.13830         3.68270
H           4.65400        -0.08700         3.60830
H           5.05540        -1.71520         3.06180
C           4.50470        -1.58620         5.17390
H           3.78070        -1.01890         5.76750
C           4.20260        -3.09600         5.39130
H           4.82990        -3.71680         4.74730
H           4.38350        -3.37660         6.43110
H           3.15490        -3.31110         5.17650
C           5.91550        -1.22760         5.72240
H           6.10280        -0.15670         5.61970
H           5.98660        -1.47870         6.78300
H           6.69210        -1.77160         5.18110

