#Put Keywords Here, check Charge and Multiplicity.

 Methyl 3-hydroxyhexanoate

0  1
C          -0.46830         0.59420        -1.11890
C          -1.91960         0.60160        -1.08020
H          -2.30760         1.04830        -2.00050
H          -2.26790        -0.43540        -1.04950
C          -2.50660         1.37540         0.13680
H          -2.20770         0.86650         1.05780
C          -4.06010         1.43770         0.08600
H          -4.45640         0.41820         0.05060
H          -4.36330         1.94920        -0.83310
C          -4.69440         2.17290         1.29780
H          -4.30780         3.19440         1.34930
H          -4.41760         1.65740         2.22150
C          -6.23550         2.24100         1.20750
H          -6.66000         1.23560         1.18820
H          -6.63290         2.77120         2.07410
H          -6.54040         2.77300         0.30410
O           0.10850         1.12520        -2.06220
O           0.15450         0.04820        -0.18710
O          -1.98290         2.70460         0.17000
H          -1.01530         2.59560         0.28390
C           1.47320        -0.03480         0.02770
H           1.91780         0.95950         0.11470
H           1.63730        -0.56890         0.96370
H           1.96550        -0.58580        -0.77630

