#Put Keywords Here, check Charge and Multiplicity.

 1,8-Octanedithiol

0  1
C          -7.96390        -3.72780        11.90200
H          -7.51150        -2.75750        12.11710
H          -8.99140        -3.72490        12.27160
C          -7.94360        -4.00210        10.37910
H          -6.90770        -4.01800        10.03260
H          -8.38420        -4.98310        10.18670
C          -8.72790        -2.93030         9.57810
H          -8.28660        -1.94820         9.77130
H          -9.76500        -2.91450         9.92580
C          -8.71230        -3.19860         8.05070
H          -7.67510        -3.21430         7.70330
H          -9.15310        -4.18100         7.85780
C          -9.49700        -2.12710         7.24580
H         -10.53450        -2.11090         7.59400
H          -9.05580        -1.14460         7.44010
C          -9.47880        -2.39670         5.71810
H          -8.44220        -2.41280         5.37240
H          -9.92180        -3.37680         5.52480
C         -10.25850        -1.32830         4.90960
H          -9.82210        -0.34310         5.10190
H         -11.29890        -1.31510         5.24870
C         -10.23310        -1.60340         3.38830
H          -9.20630        -1.60600         3.01810
H         -10.68690        -2.57280         3.17700
S          -7.04670        -4.98450        12.81850
H          -7.30160        -4.40190        14.02460
S         -11.15620        -0.33650         2.49360
H         -12.31210        -0.59750         3.16570

