#Put Keywords Here, check Charge and Multiplicity.

 Octyl 2-furoate

0  1
O           0.49110         1.08920         0.00000
C          -0.68380         0.40730         0.00000
C          -1.72540         1.33670         0.00000
H          -2.72470         1.13230         0.00000
C          -1.15280         2.59960         0.00000
H          -1.64600         3.49490         0.00000
C           0.22210         2.41600         0.00000
H           0.92510         3.15660         0.00000
C          -0.77400        -0.96660         0.00000
O           0.27980        -1.59480         0.00000
O          -1.88800        -1.53990         0.00000
C          -2.13920        -2.86200         0.00000
H          -1.68410        -3.30980         0.88870
H          -1.68410        -3.30980        -0.88870
C          -3.65660        -3.19210         0.00000
H          -4.12180        -2.75110         0.88720
H          -4.12180        -2.75110        -0.88720
C          -3.89260        -4.73260         0.00000
H          -3.41040        -5.15990        -0.88460
H          -3.41040        -5.15990         0.88460
C          -5.38380        -5.16880         0.00000
H          -5.87670        -4.75810         0.88590
H          -5.87670        -4.75810        -0.88590
C          -5.53710        -6.71760         0.00000
H          -5.03840        -7.12330         0.88510
H          -5.03840        -7.12330        -0.88510
C          -7.01560        -7.18750         0.00000
H          -7.51400        -6.78470         0.88610
H          -7.51400        -6.78470        -0.88610
C          -7.17160        -8.73390         0.00000
H          -6.68440        -9.15310        -0.88540
H          -6.68440        -9.15310         0.88540
C          -8.65360        -9.17720         0.00000
H          -8.71810       -10.26810         0.00000
H          -9.16400        -8.79940        -0.88920
H          -9.16400        -8.79940         0.88920

