#Put Keywords Here, check Charge and Multiplicity.

 Propyl mercaptan

0  1
C           0.09130        -0.55010         0.30450
H           0.38200        -1.51890         0.71790
H          -0.32140         0.06300         1.10950
C          -0.96190        -0.74250        -0.81030
H          -1.23200         0.23320        -1.22520
H          -0.53050        -1.34450        -1.61570
C          -2.24270        -1.43930        -0.29630
H          -2.70880        -0.84460         0.49070
H          -2.00470        -2.42790         0.09880
H          -2.95610        -1.55390        -1.11500
S           1.57700         0.26540        -0.32100
H           2.19950         0.24230         0.89080

