#Put Keywords Here, check Charge and Multiplicity.

 3,5,5-Trimethylhexanal

0  1
C           4.19810        -0.71730         1.25410
H           3.96830        -1.30680         2.01840
C           3.72770         0.65430         1.22740
H           4.18570         1.14260         2.09250
H           4.10270         1.16300         0.33350
C           2.16770         0.82200         1.29830
H           1.83350         0.31250         2.20700
C           1.45550         0.16290         0.05710
H           1.79310         0.69200        -0.83940
H           1.85500        -0.85140        -0.02420
C          -0.11930         0.01890        -0.01060
C          -0.68270        -0.73990         1.23430
H          -0.23040        -1.73130         1.32280
H          -1.76600        -0.86670         1.15150
H          -0.48490        -0.18780         2.15380
O           4.88780        -1.17220         0.35200
C          -0.46810        -0.83430        -1.28300
H          -0.00760        -1.82500        -1.23050
H          -1.54750        -0.98050        -1.37970
H          -0.11230        -0.34250        -2.19190
C          -0.85420         1.39470        -0.16150
H          -0.94130         1.91800         0.78800
H          -1.87620         1.25810        -0.52090
H          -0.32870         2.04320        -0.86570
C           1.83960         2.33650         1.46820
H           2.54040         2.82370         2.14840
H           0.85600         2.47370         1.90880
H           1.87760         2.85430         0.50730

