#Put Keywords Here, check Charge and Multiplicity.

 2-Acetoxy-3-butanone

0  1
C          -1.84760         1.81410         1.02090
H          -2.82280         1.48060         0.65620
H          -1.83980         2.90680         1.01300
H          -1.72200         1.47820         2.05240
C          -0.70890         1.27660         0.11870
H           0.21480         1.75230         0.47100
C          -0.58530        -0.18030         0.21190
C          -1.62220        -1.08080        -0.25930
H          -1.92150        -0.81920        -1.27520
H          -2.49350        -1.01320         0.39090
H          -1.28150        -2.11890        -0.26270
O           0.43610        -0.66270         0.68590
O          -0.98410         1.68220        -1.13820
C          -0.28240         1.75610        -2.16300
O          -0.83540         1.49480        -3.22160
C           1.09020         2.21700        -2.16940
H           1.16170         3.16620        -1.63500
H           1.45320         2.37370        -3.18770
H           1.73470         1.48640        -1.68090

