#Put Keywords Here, check Charge and Multiplicity.

 1,3-Butanedithiol

0  1
C           0.34270        -0.65310         0.11430
H           0.34690        -1.38950         0.92100
H          -0.29730         0.18310         0.40140
C          -0.16530        -1.29800        -1.20120
H          -0.15640        -0.54470        -1.99250
H           0.53950        -2.08550        -1.48290
C          -1.58790        -1.92740        -1.10420
H          -1.58320        -2.68520        -0.31690
C          -1.99980        -2.61860        -2.43050
H          -2.98920        -3.07200        -2.33500
H          -1.29120        -3.40950        -2.68170
H          -2.02390        -1.90050        -3.25110
S           2.02270        -0.01040        -0.06190
H           2.06240         0.47850         1.20930
S          -2.84710        -0.70180        -0.65780
H          -2.58230         0.09860        -1.72620

