#Put Keywords Here, check Charge and Multiplicity.

 5281163

0  1
O           0.81370         2.60910         1.13210
O          -0.96780         3.50020         0.38270
C          -0.63810         1.30810        -0.05310
C           1.79010         3.51950         0.97340
C          -0.25070         2.51120         0.48910
C          -2.06730         0.97130        -0.00550
C           0.29240         0.49940        -0.61850
C           2.93240         3.24060         1.96930
C           0.04420        -0.78710        -1.23990
H           1.41380         4.53330         1.14230
H           2.19470         3.45860        -0.04250
H          -2.44130         1.07480         1.01640
H          -2.62580         1.64880        -0.65650
H          -2.29720        -0.04450        -0.32860
H           1.24580         0.79420        -0.63310
H           2.58020         3.36410         2.99640
H           3.75810         3.93590         1.79840
H           3.30430         2.22090         1.84130
H          -0.40140        -1.47830        -0.52200
H          -0.62380        -0.67120        -2.09460
H           0.97590        -1.22890        -1.59780

