#Put Keywords Here, check Charge and Multiplicity.

 m-Cresol

0  1
C          -1.94790         1.37350         0.45100
C          -0.55740         1.14090         0.45350
H           0.07930         1.92200         0.64150
C          -0.04220        -0.15290         0.20940
C          -0.94710        -1.20630        -0.06100
H          -0.60390        -2.15240        -0.24820
C          -2.33500        -0.97470        -0.07500
H          -2.97930        -1.74560        -0.26620
C          -2.83440         0.31400         0.17960
H          -3.84370         0.47520         0.17000
C           1.41790        -0.39830         0.22340
H           1.81590        -0.24390        -0.77980
H           1.92670         0.27920         0.91170
H           1.64530        -1.41790         0.53940
O          -2.38520         2.52390         0.70120
H          -3.24970         2.68160         0.73130

