#Put Keywords Here, check Charge and Multiplicity.

 Cyclohexanecarboxylic acid

0  1
C           1.38400        -0.21490         0.29070
H           2.01670        -1.10220         0.17940
C          -0.05580        -0.71680         0.63230
H          -0.03360        -1.32610         1.54020
H          -0.71630         0.13540         0.82010
C          -0.66260        -1.56550        -0.51700
H          -0.09680        -2.49590        -0.62480
H          -1.69230        -1.83090        -0.26620
C          -0.64540        -0.79020        -1.85930
H          -1.30390         0.07970        -1.78280
H          -1.03000        -1.43010        -2.65580
C           0.78700        -0.31860        -2.21890
H           1.42200        -1.18950        -2.40800
H           0.75300         0.27240        -3.13710
C           1.40180         0.53700        -1.07910
H           2.42950         0.79270        -1.35170
H           0.83610         1.47080        -1.00260
C           1.94410         0.59970         1.36450
O           2.95050         0.24840         1.96430
O           1.42480         1.66070         1.69950
H           1.76760         2.14950         2.34960

