#Put Keywords Here, check Charge and Multiplicity.

 3-Decen-2-one

0  1
C           2.64200         0.88180         7.09020
H           2.72920         1.72090         7.78510
H           2.33150        -0.00570         7.64710
H           3.62710         0.67490         6.66300
C           1.69010         1.21960         6.04780
C           0.35870         0.95300         6.17940
H           0.05830         0.54140         7.03420
C          -0.58230         1.20320         5.24960
H          -0.32290         1.61310         4.38080
C          -1.99340         0.93070         5.46610
H          -2.11430         0.01520         6.05190
H          -2.46990         0.76060         4.49750
C          -2.70420         2.10820         6.18490
H          -2.20880         2.29950         7.14160
H          -2.61530         3.01040         5.57210
C          -4.20710         1.82600         6.45010
H          -4.70740         1.62970         5.49770
H          -4.29800         0.93130         7.07290
C          -4.92000         3.00780         7.15930
H          -4.82960         3.90560         6.53960
H          -4.42560         3.20360         8.11590
C          -6.42300         2.72160         7.41640
H          -6.52130         1.82910         8.04120
H          -6.92460         2.52690         6.46410
C          -7.14030         3.89590         8.11900
H          -8.19230         3.64350         8.27480
H          -7.08530         4.79710         7.50540
H          -6.68220         4.09560         9.08950
O           2.13200         1.78980         5.05670

