#Put Keywords Here, check Charge and Multiplicity.

 2,6-Dimethylpyridine

0  1
C          -0.85630        -1.60900         1.16020
C          -1.47880        -0.81210         2.14590
H          -1.88970        -1.23540         2.98180
C          -1.53290         0.58260         1.97200
H          -1.97780         1.16810         2.68050
C          -0.97640         1.17070         0.82320
H          -1.02280         2.18500         0.70010
C          -0.35960         0.34920        -0.14680
N          -0.32770        -0.99810         0.06110
C           0.23370         0.91610        -1.37480
H           1.05700         0.29020        -1.72320
H           0.62150         1.92270        -1.19710
H          -0.52460         0.96500        -2.15830
C          -0.77820        -3.07870         1.28860
H          -1.66370        -3.53310         0.84150
H           0.10710        -3.46150         0.77840
H          -0.72340        -3.37830         2.33780

