#Put Keywords Here, check Charge and Multiplicity.

 Ethyl 3-hydroxyhexanoate

0  1
C          -0.85270         1.52230        -1.02430
C          -1.11860         2.92670        -1.29970
H          -1.83940         3.01290        -2.12010
H          -1.59290         3.36140        -0.41650
C           0.14770         3.75900        -1.66960
H           0.82330         3.78310        -0.80800
C          -0.20760         5.22390        -2.06350
H          -0.75670         5.68620        -1.23900
H          -0.86540         5.20620        -2.93630
C           1.03000         6.10740        -2.38750
H           1.59740         5.66030        -3.20760
H           1.68030         6.15310        -1.51040
C           0.65550         7.55110        -2.79480
H           0.12110         8.05190        -1.98520
H           1.56060         8.12090        -3.01600
H           0.02530         7.54490        -3.68620
O          -1.36340         0.67120        -1.74500
O          -0.12170         1.20870        -0.06080
O           0.83420         3.13450        -2.75620
H           1.11580         2.26100        -2.41310
C           0.28110        -0.01290         0.33370
H           0.84370        -0.50220        -0.46850
H          -0.58360        -0.63650         0.58390
C           1.18580         0.09700         1.57480
H           1.49740        -0.90130         1.88930
H           0.64530         0.57280         2.39600
H           2.07520         0.68730         1.34330

