#Put Keywords Here, check Charge and Multiplicity.

 6-Hydroxydihydrotheaspirane

0  1
C           2.17050        -3.27720        -2.89140
H           1.52090        -2.47770        -3.26400
H           1.78490        -4.22130        -3.28950
C           2.13470        -3.29850        -1.32700
C           2.84480        -2.01670        -0.69470
C           4.29270        -1.72500        -1.32490
C           4.21450        -1.76990        -2.89810
H           3.61720        -0.92780        -3.26320
H           5.21190        -1.66030        -3.33490
C           3.58570        -3.06020        -3.46860
H           4.21800        -3.92520        -3.25490
H           3.51240        -2.97050        -4.55700
C           2.84350        -2.07100         0.87780
H           2.68240        -3.07550         1.27670
H           3.77610        -1.71030         1.30970
C           1.72370        -1.12280         1.32440
H           0.78280        -1.66300         1.45090
H           1.97060        -0.61640         2.26130
C           1.65380        -0.13740         0.14920
H           2.41310         0.63710         0.28940
O           1.97340        -0.90320        -1.02450
C           5.40060        -2.73290        -0.84430
H           6.35170        -2.53320        -1.34550
H           5.58060        -2.65200         0.22720
H           5.13950        -3.76590        -1.05430
C           4.82560        -0.28860        -0.96810
H           5.81650        -0.11790        -1.39370
H           4.90740        -0.13840         0.10760
H           4.17260         0.48890        -1.36710
O           2.80080        -4.49000        -0.89410
H           2.31740        -5.23000        -1.31620
C           0.64170        -3.49370        -0.89560
H           0.21490        -4.38150        -1.36990
H           0.55820        -3.63940         0.18110
H           0.03140        -2.63370        -1.18350
C           0.28760         0.56790         0.00330
H           0.31110         1.24570        -0.85170
H           0.07090         1.14660         0.90420
H          -0.51220        -0.15870        -0.14910

