#Put Keywords Here, check Charge and Multiplicity.

 Isoamyl acetoacetate

0  1
C           0.34220        -0.11460         0.16600
C           1.10710        -1.21230         0.72560
H           1.59390        -0.85430         1.63850
H           0.44360        -2.02810         1.02520
C           2.09410        -1.74950        -0.20170
O           3.27770        -1.73410         0.11310
C           1.71350        -2.32560        -1.47780
H           2.55350        -2.84080        -1.94780
H           0.90620        -3.04580        -1.34000
H           1.37240        -1.53760        -2.15100
O          -0.86330        -0.25070        -0.01030
O           0.93720         0.94400        -0.11430
C           0.45110         2.09630        -0.60270
H          -0.00810         1.92330        -1.58180
H          -0.30600         2.48970         0.08170
C           1.59760         3.12730        -0.74470
H           2.39280         2.65540        -1.33120
H           2.00510         3.33960         0.24830
C           1.19390         4.46750        -1.43930
H           0.76150         4.22440        -2.41580
C           0.12800         5.27870        -0.64610
H           0.45270         5.44970         0.38260
H          -0.04540         6.24720        -1.12000
H          -0.82510         4.74680        -0.63020
C           2.45960         5.32950        -1.70410
H           3.18190         4.76950        -2.30270
H           2.19760         6.23380        -2.25630
H           2.93380         5.61610        -0.76290

