#Put Keywords Here, check Charge and Multiplicity.

 Isophorone

0  1
O          -2.68630         2.36560        -0.32740
C          -2.19260         1.27560        -0.06590
C          -0.84600         1.16880         0.11470
H          -0.31480         2.01190         0.14800
C          -0.20790        -0.01700         0.24530
C           1.23820        -0.04370         0.43670
H           1.73580         0.09610        -0.52470
H           1.56140         0.74490         1.11970
H           1.56660        -0.99330         0.86310
C          -0.94490        -1.29020         0.19060
H          -0.35150        -2.04160        -0.34340
H          -1.04680        -1.63140         1.22560
C          -2.36510        -1.18990        -0.48070
C          -3.23310        -2.43440        -0.09740
H          -2.76570        -3.36050        -0.44170
H          -3.35890        -2.50450         0.98670
H          -4.22740        -2.36400        -0.54690
C          -2.21380        -1.13270        -2.04120
H          -3.18550        -0.99400        -2.52100
H          -1.77490        -2.05720        -2.42410
H          -1.56570        -0.30770        -2.34600
C          -3.06380         0.11320         0.04560
H          -3.99910         0.28290        -0.49730
H          -3.31890        -0.00210         1.10340

