#Put Keywords Here, check Charge and Multiplicity.

 Perillaldehyde

0  1
C           1.50940         0.29450        -0.11160
H           1.14630        -0.56690         0.22760
C           0.67650         1.34700        -0.38940
C          -0.66110         1.18260        -0.28860
H          -1.04190         0.30100        -0.01940
C          -1.60960         2.24320        -0.57530
H          -2.57820         2.00750        -0.12260
H          -1.75560         2.26760        -1.65960
C          -1.12470         3.64370        -0.08790
H          -1.72180         4.35260        -0.67560
C          -1.38640         3.88720         1.35580
C          -0.73070         3.06970         2.38250
H           0.35310         3.10560         2.26360
H          -1.05820         2.03330         2.30420
H          -0.95410         3.39800         3.40010
C          -2.22610         4.87030         1.73560
H          -2.41440         5.05170         2.69220
H          -2.68500         5.44640         1.07120
C           0.36410         3.91140        -0.50320
H           0.87510         4.49230         0.27090
H           0.37140         4.55080        -1.39230
C           1.21620         2.64260        -0.83600
H           2.22150         2.80810        -0.43600
H           1.32250         2.57040        -1.92300
O           2.72280         0.33980        -0.26340

