#Put Keywords Here, check Charge and Multiplicity.

 1-Isopropyl-4-methyl-1,3-cyclohexadiene

0  1
C           1.37420         0.09540         0.20790
C           2.13950         1.14900        -0.15590
H           1.70530         1.97620        -0.49180
C           3.49690         1.14410        -0.10170
H           3.97590         1.89820        -0.53950
C           4.20530         0.17260         0.51210
C           3.50290        -0.93280         1.16970
H           3.49910        -0.72630         2.24400
H           4.04600        -1.87040         1.01570
C           2.03220        -1.12850         0.68450
H           1.46130        -1.56730         1.50880
H           2.02400        -1.84370        -0.14340
C           5.66280         0.21560         0.53700
H           6.05480        -0.26600         1.43520
H           6.04000         1.24140         0.52890
H           6.05870        -0.30680        -0.33580
C          -0.09990         0.13400         0.09730
H          -0.51180        -0.82950         0.41820
C          -0.58390         0.31110        -1.36910
H          -1.67370         0.25970        -1.41710
H          -0.26990         1.27240        -1.77800
H          -0.18060        -0.48520        -1.99720
C          -0.73300         1.18830         1.04590
H          -1.82270         1.13660         0.99640
H          -0.42640         2.19990         0.77610
H          -0.43300         0.99510         2.07760

