#Put Keywords Here, check Charge and Multiplicity.

 1-Isopropyl-4-methyl-1,4-cyclohexadiene

0  1
C           1.50020         0.07170        -0.27480
C           2.12600         1.23330         0.01140
H           1.60030         2.07660         0.05670
C           3.55600         1.33700         0.26090
H           3.97160         2.02080        -0.48370
H           3.68800         1.78630         1.24960
C           4.31720         0.08760         0.21790
C           3.70170        -1.07860        -0.06260
H           4.22770        -1.92270        -0.08000
C           2.27400        -1.17570        -0.34320
H           2.15970        -1.59760        -1.34490
H           1.84560        -1.88340         0.37300
C           5.74710         0.13300         0.51280
H           6.18330         1.08890         0.20960
H           6.29490        -0.65460        -0.01150
H           5.90270         0.01220         1.58720
C           0.04280         0.02540        -0.52610
H          -0.25320        -1.00780        -0.73890
C          -0.36760         0.83420        -1.78810
H          -1.43640         0.71110        -1.98830
H          -0.15960         1.89970        -1.66180
H           0.18280         0.46970        -2.65980
C          -0.78790         0.43830         0.72040
H          -1.85720         0.31680         0.52270
H          -0.60320         1.48030         0.99360
H          -0.52780        -0.19910         1.57000

