#Put Keywords Here, check Charge and Multiplicity.

 Methyl cyclohexanecarboxylate

0  1
C          -1.95500         0.61820        -1.07080
H          -2.30630         1.13860        -1.97200
C          -2.53890        -0.82800        -1.12470
H          -2.17640        -1.33960        -2.01940
H          -2.20580        -1.40300        -0.25500
C          -4.09180        -0.81810        -1.15230
H          -4.43380        -0.37410        -2.09170
H          -4.46040        -1.84590        -1.11720
C          -4.69150        -0.01950         0.03380
H          -4.50530        -0.55840         0.96720
H          -5.77560         0.05480        -0.09490
C          -4.09180         1.40700         0.13240
H          -4.43380         1.99850        -0.72190
H          -4.46040         1.89050         1.04000
C          -2.53890         1.38800         0.15470
H          -2.17640         2.41870         0.15040
H          -2.20580         0.92230         1.08750
C          -0.49320         0.62120        -1.07590
O           0.09530         1.15950        -2.00840
O           0.13450         0.07970        -0.13800
C           1.45940        -0.03060         0.05300
H           1.92480         0.95610         0.12800
H           1.63970        -0.56930         0.98600
H           1.92480        -0.58900        -0.76400

