#Put Keywords Here, check Charge and Multiplicity.

 4-Methyloctanoic acid

0  1
C          -4.21410         0.38870        -3.75140
C          -3.06070        -0.14350        -3.05290
H          -3.30200        -1.11760        -2.61650
H          -2.26880        -0.29380        -3.78860
C          -2.57380         0.81500        -1.92920
H          -2.23870         1.75200        -2.38330
H          -3.44260         1.03890        -1.30670
C          -1.43360         0.25960        -1.01220
H          -1.79330        -0.66360        -0.54100
C          -1.05050         1.26350         0.12800
H          -0.20010         0.85200         0.67770
H          -0.72490         2.20440        -0.32410
C          -2.16490         1.57180         1.17130
H          -2.52580         0.63520         1.60350
H          -3.00330         2.06270         0.67660
C          -1.67450         2.50770         2.30850
H          -0.87140         2.01710         2.86200
H          -1.27330         3.42530         1.87080
C          -2.79120         2.89700         3.30160
H          -2.39460         3.58270         4.05200
H          -3.17840         2.01290         3.80880
H          -3.60960         3.39520         2.78040
O          -5.30230        -0.16690        -3.69470
O          -4.11330         1.41430        -4.41390
H          -4.81270         1.75820        -4.82260
C          -0.16750        -0.11510        -1.84090
H          -0.37670        -0.94660        -2.51460
H           0.64140        -0.43900        -1.18540
H           0.18010         0.73860        -2.42910

