#Put Keywords Here, check Charge and Multiplicity.

 1-Penten-3-ol

0  1
C          -0.13460         0.04490         0.00320
H          -0.62530         0.90830        -0.00850
H          -0.66080        -0.79750         0.01380
C           1.20300         0.00470         0.00910
H           1.63140        -0.89030         0.03620
C           2.03940         1.19870         0.01220
H           1.52120         2.00450        -0.51720
C           3.41920         1.02130        -0.68670
H           3.91400         1.99650        -0.71250
H           3.25990         0.71250        -1.72350
C           4.38860         0.01630        -0.01730
H           3.99100        -0.99960        -0.04910
H           5.34030         0.02300        -0.55120
H           4.57400         0.28970         1.02400
O           2.21530         1.63100         1.35860
H           2.73600         2.45920         1.29400

