#Put Keywords Here, check Charge and Multiplicity.

 8467

0  1
O          -2.69020         3.81550         0.36040
O          -4.89470         2.43220        -0.03870
O           0.93500         0.20190         0.48880
C          -2.59270         2.54250         0.23870
C          -1.37570         1.81960         0.32330
C          -3.78730         1.83110        -0.01090
C          -1.32610         0.41520         0.12500
C          -1.76960         4.76430         0.58230
C          -3.75350         0.44110        -0.23290
C          -2.53580        -0.25680        -0.17490
C          -2.43040         6.15520         0.53380
C          -0.14180        -0.31060         0.21640
H          -0.51390         2.32730         0.53040
H          -1.31470         4.61940         1.56630
H          -0.98890         4.72410        -0.18270
H          -4.61570        -0.07040        -0.43930
H          -2.54340        -1.26660        -0.35010
H          -3.21380         6.23030         1.29040
H          -1.68810         6.93110         0.72590
H          -2.87030         6.33100        -0.45070
H          -0.14120        -1.29230         0.06510
H          -5.64580         1.99440        -0.17290

