#Put Keywords Here, check Charge and Multiplicity.

 2,5-Xylenol

0  1
C          -1.57510         0.61620         1.86410
C          -1.52480        -0.78090         2.09840
C          -0.87350        -1.60410         1.14980
H          -0.84000        -2.61820         1.27890
C          -0.26630        -1.04930         0.00910
H           0.19150        -1.67220        -0.66260
C          -0.28880         0.34450        -0.21240
C          -0.95540         1.16730         0.72320
H          -0.99480         2.17980         0.57200
C          -2.16160        -1.39470         3.29180
H          -3.20030        -1.63260         3.05710
H          -1.64970        -2.31330         3.59020
H          -2.14060        -0.71550         4.14690
C           0.34880         0.92970        -1.41630
H           1.20370         0.33120        -1.74190
H           0.70810         1.94320        -1.22000
H          -0.38170         0.96740        -2.22690
O          -2.17670         1.38530         2.66160
H          -2.21160         2.25250         2.51140

