#Put Keywords Here, check Charge and Multiplicity.

 2-Methoxy-4-propylphenol

0  1
C           0.53250         3.33590         3.35950
C           1.66660         2.59840         3.77230
C           2.33760         1.79120         2.81980
H           3.16120         1.25780         3.10240
C           1.89810         1.71700         1.47640
C           0.75140         2.45260         1.09790
H           0.40130         2.41100         0.13760
C           0.07660         3.25630         2.02980
H          -0.74860         3.78540         1.73490
C           2.64090         0.90050         0.47610
H           3.71290         1.08710         0.59500
H           2.37790         1.21940        -0.53810
C           2.36040        -0.62130         0.60140
H           1.28940        -0.80700         0.47890
H           2.65670        -0.97260         1.59300
C           3.12780        -1.44280        -0.46050
H           2.83890        -1.12840        -1.46640
H           2.90010        -2.50530        -0.34960
H           4.20440        -1.30220        -0.33930
O           2.02560         2.72140         4.99450
C           3.04590         2.20320         5.68480
H           2.98410         2.57410         6.70700
H           2.99050         1.11360         5.71240
H           4.00200         2.51060         5.25610
O          -0.07580         4.08280         4.17160
H          -0.76540         4.56410         3.91100

