#Put Keywords Here, check Charge and Multiplicity.

 4-(Methylthio)butanol

0  1
C           4.85080        -0.52800         2.14460
H           4.94890        -1.46760         1.59480
H           5.44260         0.24120         1.64170
C           3.36540        -0.10070         2.21290
H           2.80190        -0.87560         2.74010
H           3.29400         0.82740         2.78690
C           2.74470         0.11710         0.80940
H           2.82680        -0.81490         0.24210
H           3.31910         0.88930         0.28890
C           1.25830         0.54540         0.85230
H           1.15510         1.48750         1.39550
H           0.66100        -0.22280         1.34860
S           0.63590         0.77180        -0.84680
C          -1.09610         1.26600        -0.61890
H          -1.54980         1.42390        -1.59760
H          -1.14290         2.19090        -0.04540
H          -1.63710         0.48060        -0.09240
O           5.37420        -0.71510         3.45520
H           6.30830        -0.98130         3.31780

