#Put Keywords Here, check Charge and Multiplicity.

 d-Xylose

0  1
O           1.06790        -0.47720         0.03020
C          -0.03860         0.04200         0.05780
H          -0.10880         0.99710        -0.19830
C          -1.19440        -0.71030         0.50710
H          -1.08720        -1.72920         0.11890
O          -1.14730        -0.80770         1.92830
H          -1.94030        -1.32850         2.17920
C          -2.57980        -0.18590         0.00990
H          -2.58040        -0.25560        -1.08240
O          -3.59540        -1.08540         0.45820
H          -3.33270        -1.96440         0.11020
C          -2.97900         1.27750         0.38550
H          -2.25850         1.97320        -0.04810
O          -4.24160         1.57380        -0.21330
H          -4.09980         1.49230        -1.17930
C          -3.10310         1.57940         1.90100
H          -2.13940         1.47670         2.39910
H          -3.82040         0.89430         2.36000
O          -3.55790         2.91300         2.11960
H          -2.84900         3.49150         1.76400

