#Put Keywords Here, check Charge and Multiplicity.

 Thiazole

0  1
S          -0.63640         1.67310         0.00000
C           0.03440         0.05080         0.00000
H          -0.49330        -0.82250         0.00000
N           1.37980         0.17310         0.00000
C           1.86720         1.44420         0.00000
H           2.87030         1.63180         0.00000
C           0.92180         2.47500         0.00000
H           1.09830         3.47910         0.00000

