#Put Keywords Here, check Charge and Multiplicity.

 Benzyl disulfide

0  1
S          -2.12610        -3.50140        -1.20330
S          -1.28940        -1.59790        -1.53000
C          -3.79410        -3.08630        -0.61140
H          -4.26920        -2.45310        -1.36250
H          -3.70070        -2.49410         0.30110
C          -4.60520        -4.30290        -0.35340
C          -5.50290        -4.79950        -1.32900
H          -5.58020        -4.34700        -2.24300
C          -6.30610        -5.92300        -1.05990
H          -6.95910        -6.26610        -1.76760
C          -6.21170        -6.57240         0.18310
H          -6.79130        -7.39050         0.37670
C          -5.31490        -6.09900         1.15690
H          -5.24870        -6.56850         2.06190
C          -4.50960        -4.97700         0.88740
H          -3.85780        -4.65100         1.60580
C          -0.56120        -1.19910         0.08810
H          -1.35660        -1.15140         0.83380
H           0.10510        -2.01880         0.36500
C           0.16450         0.09820         0.05090
C           1.58040         0.14860         0.05590
H           2.13140        -0.71250         0.08900
C           2.25880         1.38170         0.00840
H           3.28190         1.40430         0.00320
C           1.53010         2.58350        -0.03420
H           2.02180         3.47900        -0.07020
C           0.12440         2.55320        -0.02330
H          -0.40620         3.42780        -0.04700
C          -0.55250         1.31940         0.01930
H          -1.57570         1.31960         0.02980

