#Put Keywords Here, check Charge and Multiplicity.

 Dihydro-b-ionone

0  1
C          -3.53990         4.44000         2.08460
H          -4.49550         4.82660         1.71450
H          -2.80320         5.24620         1.98690
C          -3.69850         4.11200         3.57830
H          -3.93530         5.02450         4.13360
H          -4.53600         3.42530         3.72350
C          -2.39380         3.48610         4.12320
H          -2.67340         2.85250         4.97140
H          -1.78530         4.30790         4.51730
C          -1.54060         2.72100         3.19100
C          -1.79340         2.62020         1.84600
C          -3.06890         3.18130         1.26630
C          -4.18060         2.07350         1.30980
H          -4.02080         1.31390         0.54570
H          -4.20030         1.56580         2.27580
H          -5.17040         2.50270         1.13740
C          -2.97510         3.69220        -0.21880
H          -3.90360         4.17390        -0.53730
H          -2.80150         2.87160        -0.91730
H          -2.16550         4.41930        -0.32540
C          -0.34750         2.14860         3.83970
H           0.51440         2.78750         3.64130
H          -0.44810         2.06650         4.92490
H          -0.13900         1.14100         3.48310
C          -0.82030         1.93260         0.95080
H          -0.76670         2.41730        -0.02000
H           0.19940         2.05740         1.32010
C          -1.08560         0.41110         0.71970
H          -1.19150        -0.08880         1.68670
H          -2.02540         0.29150         0.18290
C          -0.07370        -0.30090        -0.05680
C          -0.19020        -1.72820        -0.29280
H          -1.15050        -1.95460        -0.76130
H          -0.12540        -2.26490         0.65550
H           0.60310        -2.09570        -0.95070
O           0.88680         0.28650        -0.54020

