#Put Keywords Here, check Charge and Multiplicity.

 2,6,6-Trimethyl-1-cyclohexene-1-carboxaldehyde

0  1
C          -0.55400        -1.18010        -0.22140
C           0.03220         0.03010         0.01540
C          -0.81310         1.22300         0.16970
H          -0.24330         2.15580         0.11900
H          -1.29040         1.20370         1.15050
C          -1.88460         1.27970        -0.93860
H          -1.36910         1.47390        -1.88720
H          -2.56310         2.11840        -0.75700
C          -2.68970        -0.04540        -1.05840
H          -2.82710        -0.21060        -2.13280
H          -3.69510         0.11810        -0.65790
C          -2.03890        -1.32240        -0.37590
C           0.20920        -2.30470        -0.28260
H           0.50370        -2.66160        -1.16100
O           0.51150        -2.90600         0.73730
C          -2.63830        -1.54890         1.05790
H          -2.44130        -0.70390         1.71690
H          -3.72150        -1.68400         1.01300
H          -2.21330        -2.44050         1.52720
C          -2.47000        -2.56550        -1.24480
H          -2.15510        -3.50960        -0.79300
H          -2.02640        -2.50770        -2.24170
H          -3.55630        -2.60560        -1.35920
C           1.48710         0.18950         0.17140
H           1.80910        -0.27260         1.10620
H           2.01460        -0.28880        -0.65640
H           1.80720         1.23300         0.18780

