#Put Keywords Here, check Charge and Multiplicity.

 2-Methylbutyl acetate

0  1
C          -0.20260         0.17470         0.13700
C          -0.80760        -0.91330         0.86650
H          -0.34200        -1.00030         1.85050
H          -1.88010        -0.75510         1.00530
H          -0.66430        -1.84590         0.31740
O          -0.90790         1.11020        -0.22680
O           1.02140         0.12280        -0.10500
C           1.81300         1.04300        -0.68290
H           1.79950         1.95980        -0.08390
H           1.42230         1.29510        -1.67300
C           3.28810         0.55820        -0.83080
H           3.82540         1.34320        -1.37300
C           3.45440        -0.76200        -1.65390
H           2.96790        -1.58790        -1.12940
H           4.52030        -0.99880        -1.71790
C           2.90920        -0.71420        -3.09990
H           3.35920         0.11300        -3.65260
H           3.15020        -1.64810        -3.61070
H           1.82370        -0.59930        -3.10620
C           3.98270         0.43490         0.55450
H           3.91590         1.37860         1.09930
H           5.04110         0.19640         0.42800
H           3.52070        -0.34860         1.15960

