#Put Keywords Here, check Charge and Multiplicity.

 3-Methyl-2-butenal

0  1
C           1.46410         0.24550        -0.13570
H           1.80650        -0.54580         0.34690
C           0.14860         0.58460        -0.15270
H          -0.06400         1.40630        -0.67710
C          -0.88960        -0.04930         0.44720
C          -2.25160         0.47720         0.31030
H          -2.65900         0.71680         1.29430
H          -2.31320         1.38420        -0.29670
H          -2.89480        -0.27070        -0.15740
O           2.29400         0.92070        -0.72980
C          -0.78500        -1.26700         1.25850
H          -1.39070        -2.06020         0.81440
H           0.22350        -1.65660         1.35970
H          -1.15470        -1.07170         2.26770

