#Put Keywords Here, check Charge and Multiplicity.

 4-Propylphenol

0  1
C           0.65720         3.36970        -3.33750
C          -0.18820         3.07440        -2.25030
H          -1.18790         3.27460        -2.31180
C           0.33990         2.49780        -1.07970
H          -0.29420         2.28090        -0.30710
C           1.72150         2.21120        -0.97510
C           2.56240         2.51900        -2.06990
H           3.56560         2.31850        -2.02330
C           2.03510         3.09560        -3.24130
H           2.65860         3.30710        -4.02440
C           2.27280         1.56990         0.25060
H           1.69700         1.88280         1.12630
H           3.30260         1.90070         0.41260
C           2.24100         0.02190         0.14020
H           2.82890        -0.29640        -0.72680
H           1.20950        -0.31410        -0.00750
C           2.80690        -0.67630         1.39710
H           3.84760        -0.38470         1.55590
H           2.76410        -1.76070         1.27410
H           2.22180        -0.40250         2.27800
O           0.18240         3.87140        -4.38710
H           0.70880         4.06290        -5.06630

