#Put Keywords Here, check Charge and Multiplicity.

 4-(p-Acetoxyphenyl)-2-butanone

0  1
C           0.92700         2.31460         0.18570
H           1.03680         3.31570        -0.23540
H           0.86740         2.41270         1.26990
H          -0.00570         1.87950        -0.17600
C           2.04010         1.47120        -0.20170
C           2.53940         0.40030         0.64960
H           2.96330        -0.39450         0.02760
H           1.70430        -0.04180         1.20050
C           3.62200         0.89470         1.64800
H           3.23800         1.74550         2.21780
H           4.48500         1.26170         1.08640
O           2.56030         1.65540        -1.29490
C           4.03770        -0.18950         2.58280
C           3.33040        -0.40210         3.78800
H           2.55190         0.21050         4.04320
C           3.66940        -1.46120         4.64920
H           3.12030        -1.57640         5.50020
C           4.73330        -2.34180         4.33320
C           5.45740        -2.10930         3.14210
H           6.23930        -2.72030         2.88690
C           5.11870        -1.04930         2.28020
H           5.66200        -0.91670         1.42280
O           5.10750        -3.35990         5.01930
C           4.75520        -3.90950         6.08590
O           3.91520        -3.44680         6.84580
C           5.37380        -5.16490         6.45450
H           4.85720        -5.99250         5.96450
H           6.42500        -5.18440         6.16090
H           5.32940        -5.32330         7.53540

