#Put Keywords Here, check Charge and Multiplicity.

 4-Allyl-2,6-dimethoxyphenol

0  1
C           5.86520        -0.91070        -2.07220
C           4.90580         0.11780        -2.22140
C           3.68040         0.01180        -1.51840
H           2.97780         0.74110        -1.64150
C           3.40340        -1.08070        -0.66380
C           4.38790        -2.08730        -0.53790
H           4.20190        -2.88590         0.07230
C           5.61840        -2.02040        -1.23170
O           6.53070        -2.91690        -1.14510
C           6.56390        -4.07920        -0.48440
H           7.53250        -4.54860        -0.65340
H           6.44090        -3.92190         0.58910
H           5.78240        -4.74940        -0.84620
O           5.20440         1.09500        -2.99740
C           4.54140         2.21350        -3.31330
H           5.13730         2.78340        -4.02720
H           3.58320         1.97760        -3.78000
H           4.37560         2.82860        -2.42500
C           2.11950        -1.24830         0.08460
H           1.57060        -2.06260        -0.39860
H           2.35030        -1.58060         1.10130
C           1.27590        -0.07010         0.23850
H           1.65160         0.71040         0.72960
C           0.02390         0.02220        -0.22570
H          -0.50400         0.84990        -0.08050
H          -0.40040        -0.72920        -0.71410
O           6.96060        -0.84810        -2.69820
H           7.13930        -0.17200        -3.23410

