#Put Keywords Here, check Charge and Multiplicity.

 2,5-Dimethyl-4-methoxy-3(2H)furanone

0  1
O           1.53750         2.29370        -1.36020
C           2.68600         1.82590        -0.86190
H           3.30190         1.40170        -1.66070
C           2.19250         0.78640         0.00240
C           0.86170         0.78010        -0.05380
C           0.52520         1.74520        -0.91390
O           2.89080         0.04370         0.67770
O           0.06340         0.06850         0.58520
C          -0.03860        -1.26560         0.57840
H          -0.84420        -1.55190         1.25490
H           0.88060        -1.74670         0.91960
H          -0.28520        -1.62710        -0.42290
C          -0.81280         2.15030        -1.28600
H          -1.51620         1.31970        -1.20980
H          -0.82210         2.51230        -2.31540
H          -1.13950         2.95480        -0.62620
C           3.46810         2.93890        -0.12620
H           4.36900         2.52580         0.33350
H           3.76680         3.70980        -0.83900
H           2.85400         3.40060         0.65050

