#Put Keywords Here, check Charge and Multiplicity.

 2,6-Dimethylthiophenol

0  1
C          -0.95760         1.16570         0.66450
C          -1.50860         0.61290         1.85800
C          -1.40790        -0.78050         2.07580
H          -1.80740        -1.20920         2.91330
C          -0.76220        -1.61060         1.14980
H          -0.71050        -2.61840         1.31480
C          -0.18300        -1.05720         0.00070
H           0.29580        -1.68390        -0.64960
C          -0.26010         0.33130        -0.25710
C           0.38860         0.86940        -1.48540
H           0.88800         0.09440        -2.07080
H           1.14430         1.61120        -1.21810
H          -0.36090         1.33720        -2.12560
C          -2.19010         1.45140         2.88330
H          -3.05620         1.94630         2.44130
H          -2.54120         0.86820         3.73730
H          -1.50320         2.20840         3.26810
S          -1.16370         2.87180         0.31570
H          -0.01880         3.25770         0.93990

