#Put Keywords Here, check Charge and Multiplicity.

 Diphenyl ether

0  1
O          -0.28050        -1.14240        -0.08040
C          -0.01450        -2.38620        -0.21630
C           1.25250        -3.02090        -0.23070
H           2.11310        -2.50870        -0.08150
C           1.36120        -4.40610        -0.45960
H           2.28050        -4.85060        -0.47740
C           0.21000        -5.18320        -0.66540
H           0.29530        -6.18570        -0.84560
C          -1.05600        -4.57520        -0.62470
H          -1.89700        -5.13920        -0.76670
C          -1.16360        -3.19130        -0.39380
H          -2.09880        -2.77370        -0.37020
C           0.28160         0.00440        -0.00900
C           1.66460         0.30630         0.05810
H           2.37210        -0.41670         0.10100
C           2.11030         1.64210         0.06460
H           3.11010         1.84700         0.10330
C           1.18630         2.69820         0.01730
H           1.51560         3.66580         0.00750
C          -0.18990         2.41710        -0.01910
H          -0.86600         3.18370        -0.04590
C          -0.63430         1.08200        -0.02360
H          -1.64320         0.90560        -0.05150

