#Put Keywords Here, check Charge and Multiplicity.

 Ethyl 3-(furfurylthio)propionate

0  1
C           7.73000         3.52490         1.49740
C           6.63130         3.17880         0.61020
H           7.00510         2.50320        -0.16430
H           6.26060         4.07980         0.11130
C           5.45300         2.50990         1.36380
H           5.77200         1.54870         1.77260
H           5.13410         3.15300         2.18640
O           8.04450         4.70370         1.62740
O           8.32070         2.61600         2.11890
S           4.01650         2.21610         0.27830
C           2.80060         1.44940         1.39940
H           3.22440         0.54260         1.83420
H           2.57030         2.14540         2.20770
C           1.56280         1.12540         0.67240
C           1.29150        -0.05540        -0.01790
H           1.91180        -0.86240        -0.11500
C           0.01760         0.06910        -0.54950
H          -0.47880        -0.62320        -1.11300
C          -0.45150         1.31990        -0.16760
H          -1.36420         1.70800        -0.40920
O           0.49030         1.95050         0.57510
C           9.30100         2.70970         3.03350
H          10.18500         3.17920         2.59120
H           8.96660         3.31490         3.88170
C           9.69000         1.31510         3.55420
H          10.50500         1.41250         4.27370
H          10.02050         0.68190         2.72830
H           8.83590         0.84780         4.04910

