#Put Keywords Here, check Charge and Multiplicity.

 1-Ethylhexyl tiglate

0  1
C           0.19510        -1.02530        -1.98870
C           0.09870        -0.84390        -3.35520
C          -1.05790        -0.12120        -3.90190
H          -0.72060         0.74800        -4.47240
H          -1.62700        -0.78420        -4.55850
H          -1.75120         0.24830        -3.14200
C           1.05540        -1.33990        -4.18350
H           1.83100        -1.82060        -3.78050
C           1.11170        -1.27060        -5.63860
H           1.01590        -2.27730        -6.04750
H           0.33860        -0.65050        -6.08760
H           2.07920        -0.86760        -5.94290
O           0.77220        -2.00890        -1.52980
O          -0.33690        -0.20620        -1.20330
C          -0.27830        -0.07830         0.14080
H          -0.32880        -1.06990         0.60810
C          -1.52430         0.72530         0.62450
H          -1.46010         0.85250         1.70710
H          -1.51600         1.72130         0.17110
C          -2.88640         0.03980         0.31070
H          -2.86100        -0.99610         0.65780
H          -3.04560         0.02930        -0.77030
C          -4.07230         0.77040         0.99610
H          -3.91490         0.76050         2.07810
H          -4.08550         1.81280         0.66590
C          -5.45260         0.12910         0.69570
H          -5.63170         0.13820        -0.38250
H          -5.45340        -0.91090         1.03260
C          -6.61250         0.87340         1.39690
H          -7.56250         0.39320         1.15570
H          -6.65400         1.91270         1.06480
H          -6.47810         0.85280         2.48030
C           1.07310         0.59950         0.53790
H           1.89480         0.08830         0.02970
H           1.07810         1.63770         0.19790
C           1.38290         0.56450         2.05160
H           1.32660        -0.46040         2.42420
H           0.68090         1.18610         2.60650
H           2.38740         0.94980         2.23500

