#Put Keywords Here, check Charge and Multiplicity.

 Ethyl 3-mercaptopropionate

0  1
C          -0.80870         1.56590        -1.07280
C          -1.10010         2.97020        -1.28870
H          -1.56730         3.37220        -0.38440
H          -1.81950         3.08050        -2.10640
C           0.16210         3.80110        -1.62750
H           0.68720         3.36260        -2.47760
H           0.83900         3.82800        -0.76900
O          -1.28700         0.73370        -1.83550
O          -0.08720         1.24090        -0.10790
S          -0.27960         5.50040        -2.05370
H           1.00680         5.86540        -2.30610
C           0.28420         0.01740         0.30460
H           0.84410        -0.49390        -0.48470
H          -0.59800        -0.58040         0.55480
C           1.17570         0.13760         1.55550
H           1.48590        -0.85610         1.88710
H           0.62660         0.62150         2.36530
H           2.06660         0.72660         1.33060

