#Put Keywords Here, check Charge and Multiplicity.

 2-Methoxyphenylacetate

0  1
C           0.06720         0.05180         0.18740
C          -0.40400        -1.28180         0.50610
H          -1.31430        -1.23150         1.11220
H           0.35400        -1.75760         1.13680
O          -0.62080         1.03360         0.42550
O           1.17680         0.22020        -0.30870
H           1.47090         1.03320        -0.48300
C          -0.69260        -2.09630        -0.71530
C          -1.78630        -1.79050        -1.57760
C          -2.01670        -2.59890        -2.72060
H          -2.78200        -2.39200        -3.36490
C          -1.20040        -3.70800        -2.99580
H          -1.38770        -4.29100        -3.81440
C          -0.13010        -4.01490        -2.14290
H           0.46230        -4.82290        -2.34080
C           0.12600        -3.21260        -1.01850
H           0.91870        -3.45460        -0.42110
O          -2.53470        -0.79760        -1.26800
C          -3.62130        -0.28170        -1.85580
H          -3.98890         0.54630        -1.24660
H          -3.37650         0.09760        -2.84910
H          -4.41150        -1.03170        -1.93290

