#Put Keywords Here, check Charge and Multiplicity.

 cis-3-Hexenyl cis-3-hexenoate

0  1
C           2.17540        -3.57590         0.58500
C           2.03330        -2.69980        -0.56420
H           2.60720        -3.09980        -1.40710
H           0.98570        -2.71530        -0.86570
C           2.52800        -1.35280        -0.29740
H           3.46630        -1.28480         0.03740
C           1.86560        -0.19240        -0.46720
H           2.36470         0.64160        -0.24740
C           0.50220        -0.02150        -0.95110
H           0.14650         0.97010        -0.65810
H          -0.17080        -0.73920        -0.47650
C           0.38540        -0.12280        -2.48800
H          -0.66030        -0.02320        -2.78150
H           0.95660         0.67660        -2.96410
H           0.75460        -1.08460        -2.84780
O           2.90140        -4.56000         0.48710
O           1.56320        -3.31290         1.64430
C           1.60200        -3.95780         2.82680
H           2.63910        -4.01210         3.17480
H           1.22090        -4.97820         2.69930
C           0.74740        -3.22470         3.89160
H          -0.29650        -3.22550         3.56870
H           1.06150        -2.18020         3.94190
C           0.81290        -3.89590         5.18610
H           0.41800        -4.81080         5.22070
C           1.33050        -3.42370         6.33560
H           1.26800        -4.01990         7.13100
C           1.96660        -2.13160         6.54810
H           2.52020        -1.81020         5.66470
H           2.70350        -2.23150         7.34990
C           0.95460        -1.04020         6.95790
H           1.47910        -0.09570         7.10720
H           0.19930        -0.89780         6.18220
H           0.45750        -1.31170         7.89160

