#Put Keywords Here, check Charge and Multiplicity.

 Hexyl benzoate

0  1
C          -0.84690        -1.08290         0.00000
C          -0.07830         0.09040         0.00000
C          -0.68960         1.37660         0.00000
H          -1.70790         1.47790         0.00000
C           0.07550         2.55740         0.00000
H          -0.38650         3.47140         0.00000
C           1.47740         2.48050         0.00000
H           2.03730         3.33640         0.00000
C           2.10820         1.22490         0.00000
H           3.12850         1.16960         0.00000
C           1.34060         0.04470         0.00000
H           1.83640        -0.84970         0.00000
O          -2.07150        -0.99030         0.00000
O          -0.32400        -2.22990         0.00000
C          -0.94920        -3.42970         0.00000
H          -1.58490        -3.50130        -0.89050
H          -1.58490        -3.50130         0.89050
C           0.01550        -4.64350         0.00000
H           0.65360        -4.59740        -0.88550
H           0.65360        -4.59740         0.88550
C          -0.78410        -5.97810         0.00000
H          -1.42630        -5.99730         0.88470
H          -1.42630        -5.99730        -0.88470
C           0.07970        -7.26460         0.00000
H           0.71980        -7.26760         0.88580
H           0.71980        -7.26760        -0.88580
C          -0.78990        -8.55360         0.00000
H          -1.43370        -8.56630        -0.88420
H          -1.43370        -8.56630         0.88420
C           0.06670        -9.83830         0.00000
H          -0.57820       -10.72030         0.00000
H           0.70000        -9.87020         0.88930
H           0.70000        -9.87020        -0.88930

