#Put Keywords Here, check Charge and Multiplicity.

 637566

0  1
O          -4.63650         2.53270         0.93460
C          -0.21450         1.54720        -0.03160
C           0.03470         2.63420        -1.11440
C          -1.62550         1.13180         0.05390
C           1.42640         3.08170        -1.12350
C           1.90560         4.28380        -0.72540
C          -2.11250         0.11090        -0.87150
C          -2.43850         1.69370         0.97940
C           3.34090         4.56330        -0.81290
C           1.03190         5.32780        -0.19090
C          -3.84100         1.39050         1.22360
H           0.40740         0.67180        -0.24830
H           0.13510         1.92690         0.93410
H          -0.66480         3.45510        -0.95610
H          -0.18660         2.21980        -2.10120
H           2.07880         2.40800        -1.46100
H          -2.43570        -0.76890        -0.31130
H          -2.95250         0.49990        -1.45120
H          -1.34990        -0.20980        -1.58160
H          -2.05690         2.39600         1.57450
H           3.79140         4.46010         0.17530
H           3.86300         3.89060        -1.49670
H           3.52020         5.57900        -1.17100
H           0.34290         5.67080        -0.96460
H           0.46030         4.94500         0.65640
H           1.58630         6.19670         0.16610
H          -4.22470         0.55570         0.63700
H          -3.97010         1.14160         2.27790
H          -4.48580         2.71320        -0.01680

