#Put Keywords Here, check Charge and Multiplicity.

 Isoeugenyl benzyl ether

0  1
O          -6.11830        -1.15720        -0.64330
C          -7.15550        -1.06360         0.20970
H          -7.57740        -2.05690         0.39130
H          -6.82130        -0.66090         1.16960
C          -8.20570        -0.18530        -0.36450
C          -8.52370         1.06080         0.22880
H          -8.03530         1.37620         1.06920
C          -9.51670         1.89000        -0.32350
H          -9.73330         2.78920         0.11110
C         -10.21390         1.48180        -1.47340
H         -10.94310         2.07950        -1.86810
C          -9.91070         0.24700        -2.07380
H         -10.41710        -0.04740        -2.91040
C          -8.91510        -0.58150        -1.52230
H          -8.71350        -1.47930        -1.96720
C          -4.94670        -1.67770        -0.52450
C          -4.13760        -1.78290        -1.68240
O          -4.66170        -1.40130        -2.78600
C          -4.27140        -1.53710        -4.05750
H          -5.02750        -1.07340        -4.69310
H          -3.31730        -1.04280        -4.24200
H          -4.19300        -2.59470        -4.31940
C          -2.82320        -2.30820        -1.57720
H          -2.25180        -2.36440        -2.42460
C          -2.28090        -2.74990        -0.34150
C          -0.95200        -3.21350        -0.29620
H          -0.43340        -3.18170        -1.14810
C          -0.29370        -3.68540         0.78140
H          -0.74830        -3.76470         1.65780
C           1.08810        -4.11460         0.72800
H           1.72460        -3.30690         0.36020
H           1.44150        -4.39980         1.72180
H           1.18670        -4.97870         0.06870
C          -3.12760        -2.66710         0.79190
H          -2.81790        -2.98060         1.71110
C          -4.42580        -2.13930         0.70450
H          -4.98390        -2.09040         1.55760

