#Put Keywords Here, check Charge and Multiplicity.

 Methyl 3-nonenoate

0  1
C          -0.48720         0.62330        -1.12240
C          -1.93920         0.59670        -1.12560
H          -2.31970         1.05130        -2.04400
H          -2.25400        -0.45120        -1.12690
C          -2.50860         1.33040        -0.00400
H          -2.21080         2.27020         0.13270
C          -3.40110         0.81080         0.85620
H          -3.71580        -0.12480         0.72570
C          -3.90700         1.53710         2.01140
H          -4.90360         1.16190         2.26040
H          -4.00820         2.60240         1.78760
C          -2.96900         1.34030         3.23070
H          -2.90410         0.26920         3.43690
H          -1.96780         1.69850         2.97670
C          -3.44200         2.08010         4.51210
H          -3.49320         3.15210         4.29750
H          -4.45070         1.75130         4.77780
C          -2.50160         1.88230         5.73550
H          -2.88400         2.48810         6.56150
H          -1.50300         2.25520         5.49080
C          -2.37800         0.42200         6.23040
H          -1.86630        -0.19810         5.49230
H          -1.80100         0.39400         7.15460
H          -3.36300        -0.00200         6.42420
O           0.10160         1.17040        -2.04970
O           0.12290         0.07430        -0.18150
C           1.44130        -0.02780         0.02980
H           1.89650         0.96080         0.11710
H           1.60750        -0.56650         0.96200
H           1.92360        -0.58090        -0.77900

