#Put Keywords Here, check Charge and Multiplicity.

 Methyl trans-2-octenoate

0  1
C          -0.46400         0.60920        -1.08060
C          -1.82470         0.60330        -1.08560
H          -2.27910         1.07080        -1.83660
C          -2.60180         0.02360        -0.15060
H          -2.17920        -0.46290         0.60970
C          -4.05980         0.05880        -0.16910
H          -4.43410         0.53800        -1.07800
H          -4.43140        -0.97000        -0.16270
C          -4.63650         0.81410         1.06000
H          -4.24020         1.83430         1.06890
H          -4.31260         0.31390         1.97890
C          -6.18730         0.87800         1.04060
H          -6.58560        -0.14090         1.01660
H          -6.51090         1.39180         0.13020
C          -6.77630         1.61880         2.27030
H          -6.45870         1.11190         3.18550
H          -6.39280         2.64250         2.29620
C          -8.31930         1.66670         2.23990
H          -8.69000         2.19230         3.12060
H          -8.73020         0.65530         2.23820
H          -8.66540         2.19230         1.34790
O           0.11120         1.16030        -2.01400
O           0.18020         0.07930        -0.15160
C           1.50340        -0.01850         0.03000
H           1.96050         0.97190         0.10240
H           1.68580        -0.55360         0.96170
H           1.96600        -0.57630        -0.78810

