#Put Keywords Here, check Charge and Multiplicity.

 Methyl sorbate

0  1
C          -0.49490         0.60920        -1.05520
C          -1.85740         0.60480        -1.04760
H          -2.31450         1.04840        -1.81580
C          -2.63130         0.05260        -0.09110
H          -2.18750        -0.39410         0.68260
C          -3.99460         0.07500        -0.13000
H          -4.44080         0.51990        -0.90040
C          -4.77340        -0.47330         0.81980
H          -4.35150        -0.92420         1.60070
C          -6.22200        -0.45250         0.78370
H          -6.59510         0.05910         1.67220
H          -6.61940         0.05660        -0.09800
H          -6.59510        -1.47770         0.78490
O           0.06730         1.15380        -1.99850
O           0.16670         0.07840        -0.13570
C           1.49510        -0.01330         0.02310
H           1.94780         0.97860         0.08750
H           1.69440        -0.54950         0.95180
H           1.94780        -0.56500        -0.80370

