#Put Keywords Here, check Charge and Multiplicity.

 cis-2-Nonen-1-ol

0  1
C          -0.09200         0.01460         0.09660
H          -0.46200        -0.88670         0.28520
C          -0.93140         1.03860        -0.12040
H          -1.90850         0.84910        -0.08870
C          -0.51680         2.39910        -0.43330
H           0.38490         2.65850         0.12820
H          -1.30390         3.08950        -0.11620
C          -0.26670         2.58080        -1.95370
H           0.46210         1.83730        -2.29030
H          -1.20290         2.40090        -2.48910
C           0.25590         3.99310        -2.32650
H          -0.47530         4.74460        -2.01840
H           1.18900         4.18080        -1.78860
C           0.51400         4.11800        -3.85060
H          -0.42420         3.95500        -4.38760
H           1.21580         3.33310        -4.13820
C           1.09140         5.49450        -4.27490
H           0.37920         6.27400        -3.98870
H           2.02220         5.68620        -3.73510
C           1.35290         5.62850        -5.80250
H           1.69150         6.64910        -6.00260
H           0.41540         5.48310        -6.34430
C           2.40780         4.65600        -6.38250
H           3.34110         4.72250        -5.82180
H           2.04860         3.62560        -6.35190
H           2.60990         4.91640        -7.42340
O           1.12750         0.13200         0.07260
H           1.64070        -0.56670         0.22700

