#Put Keywords Here, check Charge and Multiplicity.

 trans-2,trans-4-Octadienal

0  1
C          -4.15840        -1.92850         0.00140
H          -3.59990        -2.74920        -0.00200
C          -3.59930        -0.69590         0.00460
H          -4.21470         0.08760         0.00610
C          -2.26920        -0.48410         0.00830
H          -1.66530        -1.27830         0.00550
C          -1.69940         0.75630         0.01300
H          -2.29250         1.55630        -0.00290
C          -0.36860         0.95510         0.03220
H           0.23840         0.16590         0.05990
C           0.26760         2.26500         0.01310
H          -0.47080         3.07180         0.05120
H           0.89090         2.35180         0.90730
C           1.15290         2.45390        -1.24870
H           0.53740         2.35040        -2.14710
H           1.92770         1.68160        -1.27650
C           1.84080         3.83550        -1.28220
H           2.48040         3.95910        -0.40660
H           2.45600         3.92430        -2.17950
H           1.09210         4.62930        -1.29250
O          -5.37310        -2.06790         0.00010

