#Put Keywords Here, check Charge and Multiplicity.

 2-Oxobutyric acid

0  1
C           2.26340        -1.28050        -0.20220
C           1.36180        -0.26120        -0.12600
C          -0.07550        -0.43300        -0.31300
H          -0.62040         0.34050         0.23720
H          -0.40620        -1.39150         0.09480
C          -0.48030        -0.34660        -1.80150
H          -1.55520        -0.51140        -1.90340
H          -0.24370         0.64360        -2.19850
H           0.04310        -1.10210        -2.39190
O           1.91830        -2.43760        -0.40430
O           3.46820        -1.07590        -0.07100
H           4.04720        -1.73560        -0.13640
O           1.76680         0.87570         0.09140

