#Put Keywords Here, check Charge and Multiplicity.

 Vanillyl alcohol

0  1
C          -0.41100         1.15310        -3.98900
H           0.17790         1.41500        -4.87110
H          -0.77700         0.13250        -4.12480
C           0.39390         1.25660        -2.74680
C          -0.11270         0.75050        -1.52730
H          -1.04020         0.31780        -1.51840
C           0.64190         0.82260        -0.32870
O           0.24680         0.36090         0.79830
C          -0.85460        -0.32010         1.13180
H          -0.80890        -0.56220         2.19340
H          -1.75130         0.27560         0.94820
H          -0.91160        -1.25360         0.56770
C           1.92100         1.42430        -0.36420
O           2.63020         1.49470         0.67520
H           3.43350         1.85550         0.64530
C           2.42660         1.94620        -1.57020
H           3.34930         2.38730        -1.59560
C           1.66980         1.86360        -2.75020
H           2.05930         2.25350        -3.61150
O          -1.52420         2.03630        -3.90820
H          -2.01600         1.90640        -4.74640

