#Put Keywords Here, check Charge and Multiplicity.

 4-Vinylphenol

0  1
C          -0.30260        -4.17920         0.21470
C           0.69700        -3.29690        -0.23010
H           1.64000        -3.64540        -0.41640
C           0.40950        -1.93250        -0.42440
H           1.17110        -1.33950        -0.75340
C          -0.88500        -1.40360        -0.17580
C          -1.87580        -2.31240         0.28440
H          -2.82680        -1.98700         0.48490
C          -1.59210        -3.67980         0.47830
H          -2.32790        -4.30840         0.81140
C          -1.22590        -0.05260        -0.36030
H          -2.16350         0.21640        -0.15660
C          -0.42930         0.94130        -0.78750
H          -0.79140         1.86160        -0.87820
H           0.52260         0.80610        -1.02380
O          -0.03050        -5.39990         0.36760
H          -0.64350        -5.97330         0.63680

