#Put Keywords Here, check Charge and Multiplicity.

 1 - Menthyl lactate

0  1
C          -4.11630        -3.81160         3.81070
C          -4.32450        -4.48660         5.08530
H          -3.78120        -5.43470         5.06060
O          -3.74860        -3.68700         6.11740
H          -3.81440        -4.23090         6.93090
C          -5.79940        -4.79540         5.45500
H          -6.38780        -3.87690         5.50680
H          -6.24580        -5.46060         4.71300
H          -5.84620        -5.28830         6.42820
O          -5.06360        -3.46100         3.11930
O          -2.93350        -3.61360         3.45600
C          -2.36420        -3.00010         2.39470
H          -1.29440        -3.12980         2.57120
C          -2.69580        -3.69410         1.03740
H          -2.34790        -4.73020         1.06250
H          -3.77710        -3.70860         0.88280
C          -2.04700        -2.96900        -0.17040
H          -0.96490        -3.10690        -0.15060
H          -2.41170        -3.41970        -1.09830
C          -2.40430        -1.45750        -0.16690
H          -3.49040        -1.38430        -0.29440
H          -1.97700        -0.99110        -1.05580
C          -1.96470        -0.69760         1.14640
C          -2.65420        -1.46590         2.34920
H          -2.36740        -1.02640         3.30640
H          -3.73940        -1.33970         2.28200
C          -2.59380         0.73870         1.08330
H          -2.40750         1.29460         2.00280
H          -3.67790         0.69220         0.95110
H          -2.19280         1.31130         0.24700
C          -0.37120        -0.61550         1.29610
H           0.00900        -1.63490         1.38390
C           0.39120        -0.01740         0.06780
H           0.09680         1.01630        -0.11380
H           1.47000        -0.03340         0.23890
H           0.21790        -0.59650        -0.83740
C           0.14570         0.11100         2.57910
H          -0.24490        -0.34390         3.48780
H           1.23530         0.04540         2.64310
H          -0.12510         1.16690         2.56880

