#Put Keywords Here, check Charge and Multiplicity.

 o-Tolyl isobutyrate

0  1
C           1.03670        -2.95910        -1.16900
C           2.45840        -3.18860        -1.41870
H           2.60280        -4.21590        -1.77950
C           3.30380        -3.04980        -0.12230
H           3.28380        -2.02260         0.24860
H           2.92280        -3.71070         0.65830
H           4.34300        -3.32240        -0.31980
C           2.98840        -2.24380        -2.53230
H           2.95220        -1.20020        -2.21100
H           2.39280        -2.35000        -3.44110
H           4.02330        -2.49320        -2.77660
O           0.23800        -3.83040        -1.49030
O           0.68650        -1.86130        -0.68480
C          -0.39620        -1.32670        -0.24440
C          -0.35470         0.06890         0.03380
C          -2.73530         0.02660         0.62150
H          -3.57850         0.51890         0.92530
C          -1.60750        -2.02980        -0.01990
H          -1.66000        -3.03910        -0.15230
C          -1.53630         0.73300         0.44090
H          -1.53230         1.74060         0.61790
C          -2.76870        -1.35750         0.39930
H          -3.63740        -1.87650         0.54310
C           0.89620         0.86510        -0.09650
H           1.78330         0.26270         0.10790
H           0.90840         1.69680         0.61050
H           0.96970         1.26430        -1.10850

