#Put Keywords Here, check Charge and Multiplicity.

 4-Ethylbenzaldehyde

0  1
C           5.65450        -0.06990         0.78050
H           5.59650        -1.04380         0.59320
C           4.52080         0.73210         0.69400
C           4.56290         2.12390         0.95380
H           5.43850         2.58100         1.22150
C           3.40360         2.91450         0.85590
H           3.46690         3.91470         1.06220
C           2.16540         2.34300         0.49310
C           2.11400         0.95430         0.24100
H           1.22820         0.50740        -0.00610
C           3.27370         0.16230         0.33870
H           3.19220        -0.84000         0.14920
O           6.75620         0.36760         1.08210
C           0.93710         3.17630         0.43260
H           1.18560         4.19730         0.12810
H           0.24540         2.78320        -0.31750
C           0.24100         3.20820         1.81060
H          -0.65690         3.82320         1.75680
H           0.90760         3.62970         2.56620
H          -0.04420         2.19960         2.11710

