#Put Keywords Here, check Charge and Multiplicity.

 3-Methyl-1-pentanol

0  1
C           0.07030         0.38060         0.08930
H          -0.46520         0.27900        -0.85830
H          -0.02450        -0.54660         0.65500
C          -0.49470         1.57310         0.90160
H          -0.28940         2.46580         0.30910
H           0.06240         1.65890         1.83960
C          -2.02870         1.52020         1.21130
H          -2.55990         1.45540         0.25620
C          -2.53450         2.81150         1.94070
H          -3.60810         2.71180         2.12700
H          -2.03950         2.89880         2.91180
C          -2.34170         4.14580         1.17570
H          -2.80370         4.96010         1.73900
H          -1.28260         4.38430         1.06260
H          -2.80870         4.09250         0.18830
O           1.45340         0.58110        -0.18440
H           1.74410        -0.23540        -0.64140
C          -2.42560         0.26190         2.04220
H          -1.88540         0.23660         2.99330
H          -2.20730        -0.65210         1.48780
H          -3.49880         0.26200         2.24850

