#Put Keywords Here, check Charge and Multiplicity.

 Dihydrojasmone

0  1
C           2.08990        -1.80990         2.25250
C           1.02130        -0.89700         2.53640
H           1.25180         0.09950         2.15130
H           0.83860        -0.84650         3.61220
C          -0.16650        -1.52910         1.78700
H          -0.52650        -0.86490         0.99850
H          -0.98840        -1.76510         2.46740
C           0.39260        -2.73210         1.21430
C          -0.42560        -3.65370         0.44270
H          -0.82400        -4.42360         1.10600
H          -1.26140        -3.13130        -0.02750
H           0.14690        -4.13450        -0.35120
C           1.69590        -2.86000         1.51200
C           2.58710        -3.93970         1.08200
H           3.39370        -4.07250         1.81030
H           2.04330        -4.88760         1.05280
C           3.20940        -3.62820        -0.30780
H           2.41440        -3.43640        -1.03420
H           3.81490        -2.72050        -0.22870
C           4.09960        -4.77680        -0.84970
H           4.91140        -4.97480        -0.14460
H           3.50140        -5.68760        -0.94490
C           4.71170        -4.44420        -2.22960
H           5.33140        -3.54590        -2.16740
H           5.33540        -5.27440        -2.56850
H           3.92200        -4.27850        -2.96750
O           3.23130        -1.61770         2.65080

