#Put Keywords Here, check Charge and Multiplicity.

 Myrtenyl acetate

0  1
C          -0.16070         0.15460         0.12110
C          -0.76080        -0.93150         0.86020
H          -0.29410        -1.01280         1.84360
H          -1.83280        -0.77270         1.00330
H          -0.62420        -1.86880         0.31760
O          -0.88170         1.07560        -0.24930
O           1.07060         0.12780        -0.11820
C           1.81290         1.03920        -0.77620
H           1.71800         2.01280        -0.28220
H           1.42710         1.15880        -1.79420
C           3.22250         0.66080        -0.84320
C           4.13660         1.06710         0.08150
H           3.86080         1.61310         0.86350
C           5.56910         0.72130        -0.07910
H           5.92460         0.16550         0.79070
H           6.15520         1.64010        -0.15090
C           5.78060        -0.12960        -1.39210
H           6.81610        -0.39420        -1.61890
C           5.01700         0.61760        -2.52830
H           5.31990         0.32670        -3.53610
H           4.99810         1.71070        -2.44900
C           4.72940        -1.29190        -1.51380
C           4.34540        -2.10540        -0.22840
H           4.05010        -1.49900         0.62460
H           5.19460        -2.71350         0.08510
H           3.51200        -2.77310        -0.45170
C           5.08320        -2.34430        -2.63030
H           5.36760        -1.90570        -3.58720
H           5.91750        -2.96760        -2.30200
H           4.22660        -2.99470        -2.81630
C           3.76300        -0.14110        -1.98270
H           3.04020        -0.43380        -2.74810

