#Put Keywords Here, check Charge and Multiplicity.

 trans,trans-2,6-Nonadienal

0  1
C          -3.32270        -5.48030        -2.04080
H          -2.54990        -6.01050        -1.70900
C          -3.32800        -4.12770        -1.97240
H          -4.14100        -3.64610        -2.29120
C          -2.29750        -3.40920        -1.49010
H          -1.47620        -3.88220        -1.18600
C          -2.29940        -1.95820        -1.37340
H          -3.21540        -1.52910        -1.79650
H          -1.45540        -1.56830        -1.95120
C          -2.16060        -1.50670         0.10730
H          -2.96560        -1.94770         0.70610
H          -1.21350        -1.87880         0.51000
C          -2.17930        -0.05640         0.22320
H          -1.30870         0.42420         0.16590
C          -3.31520         0.64890         0.36500
H          -4.17740         0.15760         0.43230
C          -3.37500         2.10120         0.40810
H          -3.83450         2.40230         1.35300
H          -2.37660         2.54910         0.36600
C          -4.21420         2.66810        -0.76080
H          -4.24750         3.75720        -0.69730
H          -3.77160         2.39040        -1.72040
H          -5.23760         2.28910        -0.71670
O          -4.27740        -6.09000        -2.49730

