#Put Keywords Here, check Charge and Multiplicity.

 2,6,10,10-Tetramethyl-1-oxaspiro[4,5]dec-6-ene

0  1
O          -1.26140        -1.68130        -0.90860
C          -0.55930        -2.76820        -1.52490
H          -1.28210        -3.57720        -1.66950
C           0.53940        -3.24710        -0.55180
H           1.53860        -2.96150        -0.88620
H           0.52250        -4.33520        -0.43300
C           0.17530        -2.53870         0.76100
H          -0.41320        -3.23670         1.35060
H           1.06020        -2.30880         1.35750
C          -0.65420        -1.27580         0.33790
C           0.13760        -0.03530         0.04700
C          -0.51600         1.11780        -0.22250
H          -0.00210         1.94580        -0.43230
C          -1.95830         1.24780        -0.22950
H          -2.27490         1.12580        -1.26800
H          -2.22470         2.26420         0.07210
C          -2.72380         0.23440         0.67580
H          -3.25860         0.78790         1.45670
H          -3.50140        -0.21280         0.04510
C          -1.84730        -0.90870         1.33310
C          -1.28050        -0.41580         2.71170
H          -2.08990        -0.19100         3.41160
H          -0.64990        -1.18370         3.16400
H          -0.68080         0.48940         2.60050
C          -2.81660        -2.11250         1.63500
H          -3.74350        -1.76260         2.09700
H          -2.37640        -2.83070         2.32830
H          -3.08050        -2.64390         0.71830
C           1.60570        -0.00070         0.06010
H           1.97980        -0.22570         1.06150
H           2.00340        -0.72520        -0.64630
H           2.02540         0.96760        -0.22110
C          -0.04410        -2.32340        -2.91210
H           0.67530        -1.51010        -2.80970
H           0.43510        -3.16050        -3.42120
H          -0.87510        -1.97190        -3.52490

