#Put Keywords Here, check Charge and Multiplicity.

 Veratrole

0  1
C           1.43220        -0.21440        -0.07340
H           1.49680        -1.29770         0.03250
H           2.08420         0.24890         0.66980
H           1.76580         0.05730        -1.07790
O           0.16260         0.14470         0.13350
C          -0.41600         1.28670         0.12650
C          -1.79690         1.31220         0.45520
O          -2.35140         0.19700         0.75610
C          -3.59880        -0.11950         1.11900
H          -3.62440        -1.18920         1.32090
H          -3.89300         0.41120         2.02590
H          -4.30960         0.10090         0.32050
C          -2.49320         2.54620         0.44660
H          -3.48940         2.58430         0.67680
C          -1.82820         3.74010         0.12050
H          -2.33560         4.62790         0.11500
C          -0.46130         3.71770        -0.19670
H           0.01650         4.59070        -0.43290
C           0.24430         2.50110        -0.18930
H           1.24090         2.51230        -0.41790

