#Put Keywords Here, check Charge and Multiplicity.

 2-Acetyl-2-thiazoline

0  1
S           0.08650         1.33260         0.20390
C          -0.93970         0.14350        -0.51450
N          -2.03890         0.69000        -0.88630
C          -2.26590         2.05750        -0.69000
H          -2.44720         2.51800        -1.66390
H          -3.16990         2.17610        -0.08880
C          -1.06090         2.74060         0.01220
H          -0.61160         3.52070        -0.60440
H          -1.32970         3.13980         0.99080
C          -0.63260        -1.16310        -0.67560
O           0.12660        -1.69890         0.12080
C          -1.16780        -1.94490        -1.77560
H          -0.86550        -1.49590        -2.72410
H          -2.25860        -1.97130        -1.72730
H          -0.80190        -2.97430        -1.75500

