#Put Keywords Here, check Charge and Multiplicity.

 2,5-Dihydroxy-1,4-dithiane

0  1
S          -2.11590        -0.43410         2.89060
C          -3.73230        -0.59850         2.06520
H          -4.51600        -0.62910         2.82400
C          -4.00310         0.55080         1.06820
H          -3.22670         0.57740         0.30120
H          -4.96480         0.38090         0.57860
S          -4.08560         2.17380         1.89340
C          -2.45890         2.34150         2.69670
H          -2.45260         3.29180         3.23360
C          -2.19520         1.19740         3.70130
H          -1.23860         1.37490         4.19780
H          -2.97420         1.18090         4.46690
O          -1.44640         2.40150         1.69520
H          -0.60640         2.49960         2.19160
O          -3.73010        -1.84600         1.37420
H          -4.61570        -1.91050         0.95680

