#Put Keywords Here, check Charge and Multiplicity.

 1738124

0  1
O           1.24740        -0.50030        -0.72200
O          -3.37750         3.53520        -0.25000
O          -2.54720         3.73760        -2.17150
C          -2.05140         0.81050        -0.50830
C          -0.52580         1.04930        -0.75860
C          -2.21520        -0.72640        -0.59440
C           0.08180         2.16820         0.15120
C          -0.85760        -1.27870        -0.13780
C           0.06180        -0.25670        -0.54450
C          -3.00200         1.56280        -1.49170
C           1.48720         2.66240        -0.29270
C           1.99610         3.86570         0.54580
C          -2.99370         3.00290        -1.30200
C           3.38390         4.38210         0.07940
C           3.85290         5.62340         0.87260
C          -4.63760         3.64770         0.18310
H          -2.30800         1.09650         0.51990
H          -0.36540         1.31060        -1.80910
H          -3.02270        -1.08360         0.05200
H          -2.41580        -1.04650        -1.62370
H          -0.58800         3.02880         0.13380
H           0.12670         1.81490         1.18620
H          -0.82610        -1.38330         0.94900
H          -0.64270        -2.24160        -0.60760
H          -4.02350         1.20100        -1.35480
H          -2.71650         1.32060        -2.51980
H           2.20520         1.84620        -0.20100
H           1.44110         2.96030        -1.34380
H           2.06090         3.56450         1.59450
H           1.27210         4.68080         0.46830
H           4.12600         3.58890         0.20210
H           3.34180         4.64490        -0.98320
H           3.92830         5.38930         1.93640
H           3.14720         6.44600         0.73610
H           4.83500         5.94250         0.51710
H          -4.62720         4.15900         1.14640
H          -5.10500         2.66990         0.32140
H          -5.23340         4.23910        -0.51690

