#Put Keywords Here, check Charge and Multiplicity.

 Isopropyl disulfide

0  1
S          -2.87380         0.16840         1.34470
S          -1.15950        -0.96100         0.90610
C          -4.25300        -0.95980         0.95400
H          -3.96650        -1.97980         1.23080
C          -5.47520        -0.55300         1.81340
H          -5.23130        -0.62270         2.87420
H          -5.77940         0.47160         1.59420
H          -6.31910        -1.21500         1.61630
C          -4.58320        -0.92910        -0.55780
H          -3.74330        -1.31140        -1.13870
H          -4.80080         0.08970        -0.88410
H          -5.45300        -1.55400        -0.76900
C          -0.23730         0.03230        -0.31690
H           0.71820        -0.48140        -0.45960
C           0.08700         1.45220         0.21320
H           0.79690         1.94750        -0.45190
H           0.53400         1.39870         1.20800
H          -0.81530         2.06210         0.26950
C          -0.96060         0.05320        -1.68640
H          -0.32490         0.52400        -2.44040
H          -1.17380        -0.96780        -2.01160
H          -1.90070         0.60670        -1.62350

