#Put Keywords Here, check Charge and Multiplicity.

 1,4-Dithiane

0  1
S          -0.69760         1.72020        -0.04020
C          -0.00800         0.03430         0.01810
H          -0.36240        -0.50070        -0.86420
H          -0.38510        -0.48020         0.90450
C           1.53800         0.03280         0.02070
H           1.89240        -0.99880        -0.00150
H           1.91510         0.54320        -0.86810
S           2.22760         0.82530         1.50990
C           1.53800         2.51130         1.45160
H           1.91510         3.02580         0.56520
H           1.89240         3.04630         2.33390
C          -0.00800         2.51280         1.44900
H          -0.38510         2.00230         2.33780
H          -0.36240         3.54430         1.47120

