#Put Keywords Here, check Charge and Multiplicity.

 Ethyl methyl Sulfide

0  1
S          -0.06000        -0.05640        -0.05640
C          -0.61850         1.67410         0.02420
H          -1.70640         1.69350         0.10020
H          -0.31920         2.20830        -0.87850
H          -0.18820         2.16330         0.89970
C           1.76110         0.05040        -0.02020
H           2.15330        -0.96740         0.05650
H           2.07150         0.60370         0.86890
C           2.35530         0.71870        -1.27600
H           1.99190         0.22700        -2.18030
H           3.44460         0.64090        -1.24920
H           2.08860         1.77510        -1.30700

