#Put Keywords Here, check Charge and Multiplicity.

 Methyl sulfoxide

0  1
S          -0.03590        -0.05080        -0.07400
O          -0.48770        -0.68970         1.32510
C          -0.59850         1.68830        -0.00360
H          -0.23730         2.22420        -0.88160
H          -1.68920         1.71380         0.01030
H          -0.21640         2.16730         0.89850
C           1.79120        -0.00150        -0.00360
H           2.17610         0.51770        -0.88160
H           2.17890        -1.02140         0.01030
H           2.11550         0.51840         0.89850

