#Put Keywords Here, check Charge and Multiplicity.

 Geranyl tiglate

0  1
C          -2.37780         0.96500         0.08030
C          -1.42000        -0.04200         0.04970
C          -1.83970        -1.45200         0.06960
H          -2.91170        -1.60130         0.20530
H          -1.35090        -1.98560         0.88720
H          -1.56860        -1.92330        -0.87740
C          -0.09410         0.25620        -0.01910
H           0.18290         1.21300        -0.03540
C           1.04060        -0.65740        -0.08080
H           1.62720        -0.56450         0.83380
H           0.76880        -1.70360        -0.20440
H           1.67810        -0.38210        -0.92230
O          -2.05350         2.14810         0.01020
O          -3.60170         0.69640         0.17030
C          -4.67720         1.42610        -0.17220
H          -4.70090         2.37380         0.37310
H          -4.60870         1.66930        -1.23800
C          -5.91150         0.69040         0.06200
H          -6.37820         0.38850        -0.76440
C          -6.48000         0.39660         1.25750
C          -5.87300         0.75270         2.54490
H          -5.64260        -0.15050         3.11060
H          -4.94550         1.31750         2.46500
H          -6.57260         1.35700         3.12480
C          -7.80130        -0.26530         1.30330
H          -8.21530        -0.39350         0.29660
H          -8.49320         0.40460         1.82290
C          -7.82380        -1.64680         2.02430
H          -7.65610        -1.49080         3.09380
H          -7.00400        -2.27880         1.67600
C          -9.10240        -2.33650         1.87700
H          -9.74600        -2.19500         2.62620
C          -9.49370        -3.11790         0.84110
C         -10.81170        -3.75910         0.85580
H         -10.69470        -4.84360         0.81110
H         -11.40350        -3.53030         1.74530
H         -11.39120        -3.44050        -0.01280
C          -8.67840        -3.39340        -0.34530
H          -9.23390        -3.12520        -1.24690
H          -7.73660        -2.84870        -0.38150
H          -8.44450        -4.45920        -0.38670

