#Put Keywords Here, check Charge and Multiplicity.

 Propyl tiglate

0  1
C          -0.89330         1.50890        -1.04710
C          -1.14970         2.84080        -1.33490
C          -0.62500         3.88990        -0.44560
H           0.08040         4.51890        -0.99080
H          -1.44370         4.50940        -0.07520
H          -0.09720         3.51090         0.43170
C          -1.88110         3.18820        -2.42640
H          -2.23830         2.46540        -3.01170
C          -2.23410         4.52280        -2.88720
H          -3.31030         4.66160        -2.78670
H          -1.73480         5.32800        -2.35270
H          -1.97490         4.61650        -3.94220
O          -1.44010         0.60440        -1.67570
O          -0.10110         1.19510        -0.12810
C           0.29350        -0.00620         0.32650
H          -0.58490        -0.59170         0.61200
H           0.82990        -0.54340        -0.46050
C           1.20100         0.13170         1.57300
H           1.43860        -0.87160         1.93700
H           0.65400         0.65440         2.36420
C           2.53050         0.87200         1.30020
H           2.34610         1.91670         1.03980
H           3.15500         0.84210         2.19600
H           3.07410         0.39240         0.48360

