#Put Keywords Here, check Charge and Multiplicity.

 Ethyl 2-furoate

0  1
O          -1.89630         3.29320        -2.37160
C          -1.11900         2.86400        -1.34360
C          -0.67940         3.98220        -0.63190
H          -0.07770         3.98490         0.19590
C          -1.20940         5.10350        -1.25360
H          -1.07580         6.07760        -0.97660
C          -1.95890         4.64400        -2.32840
H          -2.47830         5.22790        -2.98690
C          -0.84140         1.53760        -1.08850
O          -1.32430         0.69270        -1.83350
O          -0.11650         1.23180        -0.12080
C           0.28190         0.02420         0.31160
H           0.85330        -0.49110        -0.46700
H          -0.58360        -0.59100         0.57770
C           1.17460         0.19380         1.55570
H           1.50280        -0.78370         1.91360
H           0.61890         0.69130         2.35380
H           2.05540         0.79120         1.30940

