#Put Keywords Here, check Charge and Multiplicity.

 1738122

0  1
O           1.38860        -0.26450        -0.38440
O          -3.52340         3.73400        -0.65980
O          -2.23410         3.56240        -2.30740
C          -1.88430         0.84790        -0.72380
C          -0.42660         0.93030        -1.28830
C          -2.10330        -0.67650        -0.56240
C          -0.25240         0.80640        -2.84160
C          -0.71730        -1.20970        -0.15370
C           0.18740        -0.18860        -0.60120
C          -3.05650         1.55550        -1.47700
C           1.22390         0.90290        -3.33300
C           1.35760         0.89730        -4.88090
C          -2.95510         3.00780        -1.49170
C           2.82970         1.02060        -5.36210
C           2.96210         1.02640        -6.90250
C          -4.82310         4.05220        -0.60610
H          -1.87180         1.27450         0.29060
H           0.02680         1.87090        -0.95580
H          -2.86200        -0.90370         0.19420
H          -2.40690        -1.12480        -1.51510
H          -0.67970        -0.13790        -3.19210
H          -0.81030         1.61300        -3.31710
H          -0.64460        -1.31530         0.93220
H          -0.50370        -2.16680        -0.63730
H          -3.98920         1.28060        -0.97350
H          -3.13370         1.18110        -2.50160
H           1.67120         1.82060        -2.94020
H           1.79410         0.05580        -2.94560
H           0.78140         1.73160        -5.29110
H           0.93460        -0.03490        -5.26680
H           3.26270         1.94770        -4.97560
H           3.41170         0.18310        -4.96610
H           2.41500         1.86790        -7.33090
H           2.57170         0.09800        -7.32340
H           4.01340         1.11860        -7.18090
H          -4.97820         4.72730         0.23680
H          -5.44550         3.16750        -0.45140
H          -5.13840         4.56580        -1.51870

