#Put Keywords Here, check Charge and Multiplicity.

 Furfuryl butyrate

0  1
C           5.03750         2.45490        -0.45760
C           5.77300         2.99110         0.67540
H           6.71950         3.42410         0.33330
H           5.18800         3.79660         1.12790
C           6.08340         1.90740         1.74200
H           6.54840         1.04310         1.26020
H           5.14680         1.57700         2.19950
C           7.03240         2.39160         2.86110
H           6.62460         3.27010         3.36530
H           7.16560         1.59850         3.60100
H           8.01010         2.64270         2.44450
O           5.57410         2.45400        -1.56020
O           3.88200         2.00740        -0.29170
C           2.99850         1.58890        -1.21200
H           3.39200         0.73060        -1.76500
H           2.79690         2.39320        -1.92480
C           1.72890         1.22180        -0.56500
C           1.39630        -0.01840        -0.02290
H           1.98910        -0.85040         0.01130
C           0.09700         0.08110         0.45160
H          -0.44400        -0.65340         0.90920
C          -0.32500         1.37640         0.18500
H          -1.24290         1.75840         0.41490
O           0.66930         2.05910        -0.43070

