#Put Keywords Here, check Charge and Multiplicity.

 5-(Hydroxymethyl)furfural

0  1
C           1.89480         4.03450        -1.29900
H           2.74480         4.52150        -1.45810
C           1.91120         2.69310        -1.00440
C           3.04680         1.89360        -0.89670
H           4.01730         2.18870        -1.01970
C           2.61920         0.61240        -0.58920
H           3.21360        -0.20700        -0.44690
C           1.23050         0.65780        -0.51340
O           0.81620         1.92480        -0.77060
O           0.84340         4.65090        -1.37190
C           0.34770        -0.48090        -0.22290
H          -0.56040        -0.13310         0.27170
H           0.85050        -1.19910         0.42660
O           0.00260        -1.11760        -1.44720
H          -0.56890        -1.86770        -1.18390

