#Put Keywords Here, check Charge and Multiplicity.

 Phytol

0  1
C           0.05160         0.15000        -0.20790
H          -0.00770        -0.50520         0.66460
H          -0.07470         1.18450         0.11190
C          -1.03900        -0.23730        -1.23690
H          -0.74580        -1.21060        -1.62870
H          -1.01290         0.47220        -2.07020
C          -2.49380        -0.31740        -0.66700
H          -2.49380        -1.00050         0.18760
C          -2.98580         1.06420        -0.14500
H          -2.92970         1.81680        -0.93580
H          -4.01760         1.00250         0.20510
H          -2.38400         1.39840         0.70110
C          -3.51540        -0.87390        -1.71650
H          -4.52630        -0.79430        -1.30760
H          -3.47760        -0.24920        -2.61210
C          -3.30710        -2.36010        -2.12600
H          -3.32530        -2.97750        -1.22510
H          -2.33370        -2.47600        -2.60170
C          -4.38560        -2.86570        -3.12640
H          -4.47110        -2.10830        -3.90410
H          -5.35390        -2.91830        -2.61940
C          -4.06270        -4.24700        -3.78900
H          -3.05020        -4.20360        -4.20160
C          -4.07660        -5.39460        -2.73890
H          -5.03160        -5.41830        -2.20790
H          -3.92170        -6.36130        -3.22060
H          -3.27270        -5.26570        -2.01330
C          -5.03220        -4.58950        -4.96800
H          -4.85400        -5.61990        -5.28510
H          -6.06080        -4.53390        -4.60510
C          -4.88780        -3.69970        -6.23730
H          -5.12030        -2.66450        -5.98850
H          -3.85260        -3.74590        -6.58170
C          -5.83890        -4.14350        -7.38580
H          -6.81850        -4.28910        -6.93280
H          -5.51340        -5.11500        -7.77050
C          -5.96860        -3.12810        -8.57140
H          -6.22870        -2.15170        -8.15180
C          -4.61650        -2.94730        -9.31730
H          -4.22960        -3.91120        -9.65570
H          -4.73800        -2.29540       -10.18320
H          -3.87790        -2.47950        -8.66470
C          -7.10130        -3.51470        -9.58440
H          -7.06250        -2.83080       -10.43560
H          -6.91920        -4.52240        -9.96430
C          -8.54320        -3.43680        -9.00450
H          -8.68230        -2.43960        -8.57910
H          -8.65260        -4.17000        -8.20420
C          -9.66570        -3.71610       -10.04270
H          -9.44010        -4.66680       -10.53390
H          -9.65010        -2.93770       -10.81110
C         -11.09500        -3.80460        -9.41220
H         -11.06640        -4.54140        -8.60290
C         -12.13540        -4.32090       -10.44220
H         -11.84530        -5.30700       -10.81070
H         -13.11760        -4.41370        -9.97430
H         -12.21340        -3.63620       -11.28880
C         -11.56230        -2.45850        -8.79300
H         -11.48550        -1.64900        -9.52250
H         -12.59690        -2.53180        -8.45540
H         -10.95470        -2.21050        -7.92220
O           1.34430         0.01350        -0.79460
H           1.98130         0.22890        -0.07850

