#Put Keywords Here, check Charge and Multiplicity.

 2-Methyl-3-propylpyrazine

0  1
C           2.34250         2.05470         2.30970
C           1.61760         2.20130         1.09290
N           1.81520         2.62100         3.43110
N           0.44540         2.89350         1.12330
C          -0.06740         3.44840         2.24750
H          -0.95520         3.95360         2.21560
C           0.64600         3.30770         3.44780
H           0.29560         3.71370         4.31770
C           2.02280         1.62620        -0.21190
H           3.10790         1.68780        -0.32230
H           1.58280         2.21430        -1.02500
C           1.53750         0.15790        -0.35180
H           0.44370         0.14080        -0.38050
H           1.85920        -0.42790         0.51280
C           2.07440        -0.53100        -1.62590
H           1.75660         0.00880        -2.51930
H           1.69070        -1.55200        -1.67970
H           3.16570        -0.57110        -1.60230
C           3.63710         1.34910         2.44950
H           4.45110         2.02550         2.18120
H           3.78380         1.01420         3.48030
H           3.68380         0.46620         1.81380

