#Put Keywords Here, check Charge and Multiplicity.

 Propylene carbonate

0  1
C           0.05430        -0.05140         0.10150
O          -0.65780        -1.04630         0.10100
O           1.23950        -0.08010         0.39430
O          -0.53290         0.97600        -0.21500
C          -1.90910        -0.76060        -0.22530
H          -2.21170        -1.32540        -1.11160
H          -2.57570        -0.99880         0.60740
C          -1.81890         0.76200        -0.47360
H          -2.43020         1.30920         0.25140
C          -2.19660         1.20740        -1.90710
H          -3.22910         0.92960        -2.11980
H          -2.10130         2.29070        -1.99670
H          -1.54420         0.73600        -2.64530

