#Put Keywords Here, check Charge and Multiplicity.

 Furfuryl hexanoate

0  1
C           5.01810         2.49660        -0.47970
C           5.81510         2.98980         0.63040
H           6.77610         3.35840         0.25680
H           5.29320         3.83920         1.07950
C           6.08950         1.91090         1.71860
H           5.14130         1.62340         2.18030
H           6.51760         1.02130         1.24620
C           7.06070         2.40320         2.83030
H           6.63590         3.29530         3.29740
H           8.01290         2.68410         2.37030
C           7.33670         1.34320         3.93430
H           7.76620         0.44650         3.47990
H           6.39570         1.05960         4.41370
C           8.30950         1.85080         5.02610
H           8.46950         1.07200         5.77460
H           7.90020         2.73140         5.52610
H           9.27490         2.11100         4.58710
O           5.51450         2.49320        -1.60280
O           3.84780         2.09410        -0.27350
C           2.96790         1.60950        -1.16610
H           3.38420         0.72900        -1.66470
H           2.75420         2.36330        -1.92880
C           1.69470         1.23470        -0.53310
C           1.36140        -0.02240        -0.02990
H           1.96800        -0.84480         0.01470
C           0.04070         0.04260         0.38640
H          -0.51540        -0.71750         0.78380
C          -0.38460         1.34330         0.14770
H          -1.31430         1.71230         0.35950
O           0.62190         2.05660        -0.41290

