#Put Keywords Here, check Charge and Multiplicity.

 Furfuryl heptanoate

0  1
C           4.96940         2.47140        -0.50470
C           5.74380         2.97680         0.61470
H           6.70310         3.35640         0.24880
H           5.20820         3.82050         1.05780
C           6.03320         1.91460         1.71100
H           5.09450         1.63020         2.19410
H           6.45870         1.02320         1.24160
C           7.02620         2.43850         2.78600
H           6.60450         3.32470         3.26820
H           7.95100         2.73010         2.28440
C           7.36320         1.38350         3.87560
H           6.43210         1.07900         4.36350
H           7.79390         0.49880         3.39890
C           8.33990         1.88080         4.97700
H           8.43230         1.09030         5.72980
H           7.91620         2.75880         5.47160
C           9.76290         2.22740         4.47590
H          10.18200         1.39380         3.91060
H           9.74510         3.11350         3.84010
H          10.41570         2.42960         5.32780
O           5.48330         2.48740        -1.61870
O           3.80330         2.05410        -0.32560
C           2.93530         1.58220        -1.23770
H           3.35010         0.70180        -1.74010
H           2.72670         2.34490        -1.99490
C           1.66630         1.21530        -0.59210
C           1.34630        -0.02860        -0.05280
H           1.94940        -0.85370        -0.02210
C           0.04790         0.05720         0.42420
H          -0.48410        -0.68740         0.87840
C          -0.38600         1.35000         0.16590
H          -1.30810         1.71970         0.39690
O           0.60240         2.04420        -0.44850

