#Put Keywords Here, check Charge and Multiplicity.

 2,4-Dimethylthiazole

0  1
S          -1.02540        -1.24930         1.55590
C          -1.45590         0.43990         1.76930
N          -0.98790         1.10420         0.68880
C          -0.32320         0.36870        -0.24920
C          -0.21680        -1.00440         0.02200
H           0.23760        -1.71810        -0.54870
C           0.23070         0.98740        -1.46720
H           1.11820         0.44890        -1.80740
H           0.51460         2.02590        -1.27750
H          -0.52330         0.96370        -2.25630
C          -2.19930         1.01170         2.89660
H          -3.26740         0.97190         2.68190
H          -1.99450         0.44290         3.80470
H          -1.90450         2.04940         3.05890

