#Put Keywords Here, check Charge and Multiplicity.

 8130

0  1
O           1.22800        -0.00050        -0.25270
C          -1.67070         2.85870         1.82050
C          -2.27190         4.19590         1.31090
C          -1.08090         1.99350         0.67500
C          -2.86220         5.06580         2.45340
C          -0.47500         0.66250         1.19240
C          -3.45830         6.39330         1.93570
C           0.06670        -0.12340         0.10590
H          -0.87810         3.07820         2.54250
H          -2.45240         2.28750         2.33110
H          -1.48800         4.76140         0.79810
H          -3.06020         3.97330         0.58540
H          -1.86980         1.77180        -0.04920
H          -0.30400         2.56530         0.16050
H          -3.64720         4.50620         2.96980
H          -2.07830         5.29330         3.18140
H          -1.25050         0.07710         1.69550
H           0.30600         0.87120         1.93120
H          -3.86020         6.96970         2.77020
H          -2.68850         6.98670         1.44030
H          -4.26440         6.19600         1.22750
H          -0.51300        -0.76650        -0.37630

