#Put Keywords Here, check Charge and Multiplicity.

 Prenyl acetate

0  1
C          -0.13590         0.21640         0.15790
C          -0.65400        -0.90960         0.89720
H          -0.20090        -0.93870         1.88940
H          -1.73900        -0.84640         1.01080
H          -0.41610        -1.83560         0.36970
O          -0.89910         1.09790        -0.21920
O           1.08850         0.24930        -0.07360
C           1.77160         1.01790        -0.93700
H           1.39950         0.82680        -1.94970
H           1.62760         2.08280        -0.73050
C           3.18420         0.68290        -0.87300
H           3.52900         0.16730        -1.65080
C           4.04760         0.99020         0.12310
C           5.45320         0.58420         0.02870
H           5.71800        -0.04630         0.88020
H           5.68390         0.01890        -0.87880
H           6.09440         1.46810         0.03610
C           3.67450         1.73350         1.32920
H           4.13570         2.72230         1.30160
H           2.60050         1.86990         1.45000
H           4.02760         1.21100         2.22050

