#Put Keywords Here, check Charge and Multiplicity.

 Diethyl maleate

0  1
C          -0.78540         1.49320        -0.99110
C          -0.53840         2.67540        -1.60340
H          -1.33300         3.17530        -1.93820
C           0.67130         3.24220        -1.79500
H           0.67390         4.13750        -2.23000
C           1.88580         2.72720        -1.46490
O          -1.53240         0.69110        -1.53860
O          -0.25810         1.26880         0.11450
O           2.78680         3.49970        -1.16060
O           2.07310         1.49520        -1.48450
C          -0.23920         0.15780         0.86250
H           0.20150        -0.67170         0.30100
H          -1.25620        -0.11530         1.16170
C           0.60640         0.41580         2.12580
H           0.65110        -0.48820         2.73480
H           0.16010         1.21630         2.71910
H           1.62330         0.70430         1.85180
C           3.19490         0.76760        -1.60200
H           3.34750         0.21680        -0.67220
H           4.08670         1.37570        -1.78800
C           3.01940        -0.23020        -2.76270
H           2.86060         0.30910        -3.69920
H           3.91320        -0.84890        -2.85960
H           2.16030        -0.87940        -2.57870

