#Put Keywords Here, check Charge and Multiplicity.

 4-Isopropylphenol

0  1
C           3.93930        -1.07490        -0.09630
C           2.68310        -1.32440         0.48860
H           2.45060        -2.26050         0.83500
C           1.73830        -0.28560         0.59990
H           0.83250        -0.49240         1.02680
C           2.02630         1.02040         0.13230
C           3.29220         1.24650        -0.46070
H           3.53770         2.17070        -0.81700
C           4.23960         0.21380        -0.57300
H           5.14760         0.40150        -1.00340
C           1.02410         2.12810         0.26100
H           0.12290         1.74050         0.74510
C           0.56440         2.65810        -1.12510
H          -0.21670         3.41130        -1.00240
H           1.39150         3.11010        -1.67660
H           0.15480         1.83790        -1.71920
C           1.53970         3.26950         1.18050
H           0.76440         4.02640         1.31610
H           2.42260         3.75580         0.76000
H           1.79710         2.86730         2.16320
O           4.78630        -1.99920        -0.19310
H           5.57690        -1.85120        -0.55490

