#Put Keywords Here, check Charge and Multiplicity.

 Methyl decanoate

0  1
C          -0.42370         0.60270        -1.15010
C          -1.87490         0.57090        -1.12750
H          -2.28000         1.01000        -2.04540
H          -2.18920        -0.47640        -1.09640
C          -2.46420         1.32210         0.10090
H          -2.16330         0.80640         1.01860
H          -2.05530         2.33660         0.13670
C          -4.01180         1.40410         0.05790
H          -4.31360         1.92020        -0.85810
H          -4.41860         0.38950         0.02700
C          -4.60910         2.15350         1.27790
H          -4.19740         3.16600         1.31200
H          -4.31680         1.63590         2.19590
C          -6.15700         2.24070         1.21660
H          -6.44910         2.76070         0.29990
H          -6.57190         1.22930         1.18180
C          -6.75910         2.99070         2.43390
H          -6.46790         2.47310         3.35260
H          -6.34870         4.00420         2.46830
C          -8.30690         3.07410         2.36980
H          -8.59910         3.59240         1.45140
H          -8.71790         2.06060         2.33410
C          -8.91150         3.82220         3.58700
H          -8.50800         4.83800         3.62680
H          -8.62640         3.30720         4.50880
C         -10.45220         3.90410         3.52250
H         -10.82950         4.43710         4.39700
H         -10.88590         2.90230         3.51010
H         -10.76710         4.43920         2.62460
O           0.16100         1.15210        -2.07740
O           0.18020         0.05850        -0.20430
C           1.48950        -0.03990         0.03240
H           1.93880         0.95130         0.13220
H           1.62690        -0.58040         0.96810
H           1.98720        -0.59210        -0.76870

