#Put Keywords Here, check Charge and Multiplicity.

 o-Anisaldehyde

0  1
C           1.05530         1.24830         0.15540
C           1.09120         1.03490        -1.25570
C           0.45170        -0.10960        -1.80140
H           0.45940        -0.28630        -2.80800
C          -0.21940        -1.02580        -0.97660
H          -0.68860        -1.83740        -1.38580
C          -0.24970        -0.82500         0.41090
H          -0.74240        -1.49000         1.01460
C           0.39270         0.29240         0.97030
H           0.35650         0.40230         1.98720
O           1.70330         1.89220        -1.99190
C           1.89910         1.94600        -3.31500
H           2.46140         2.84770        -3.55840
H           2.47140         1.07790        -3.65200
H           0.94220         1.98570        -3.84050
C           1.63320         2.37850         0.74190
H           2.00420         3.10600         0.17990
O           1.70280         2.54840         1.95180

