#Put Keywords Here, check Charge and Multiplicity.

 (1S)-(-)-Verbenone

0  1
O          -2.72790         2.06360        -0.31730
C          -2.08440         1.04300        -0.11970
C          -2.73150        -0.19410         0.39990
H          -3.81990        -0.17030         0.51080
C          -2.17720        -1.36870        -0.47090
H          -2.75480        -2.29360        -0.39720
H          -1.98430        -1.14010        -1.52610
C          -1.90610        -0.77970         1.61380
C          -1.33950         0.21760         2.69260
H          -0.80350         1.06540         2.27480
H          -0.64150        -0.30320         3.35340
H          -2.15670         0.62580         3.29320
C          -2.63670        -1.91600         2.41400
H          -3.44220        -1.49160         3.01870
H          -3.07660        -2.67930         1.77570
H          -1.92960        -2.41630         3.08060
C          -0.93580        -1.30340         0.48190
H          -0.45170        -2.26790         0.66230
C          -0.06540        -0.18570        -0.01120
C           1.37430        -0.34150        -0.11560
H           1.63960        -0.68950        -1.11440
H           1.88730         0.60300         0.07860
H           1.73440        -1.06750         0.61590
C          -0.70960         0.97740        -0.32270
H          -0.21300         1.76900        -0.66230

