#Put Keywords Here, check Charge and Multiplicity.

 4-tert-Butylcyclohexyl acetate

0  1
C          -0.38320        -0.03810         0.28270
C          -0.88070        -1.17300         1.02490
H          -0.36840        -1.23800         1.98630
H          -1.95480        -1.09050         1.21080
H          -0.69770        -2.09020         0.46240
O          -1.17260         0.84240        -0.03920
O           0.83390         0.01050        -0.00750
C           1.58100         0.92290        -0.67920
H           2.59750         0.51820        -0.67250
C           1.16490         1.06330        -2.17380
H           1.30290         0.09870        -2.67020
H           0.10500         1.31900        -2.24520
C           1.98850         2.14650        -2.92510
H           3.02380         1.80580        -3.00300
H           1.58700         2.20580        -3.93610
C           1.93590         3.55090        -2.22560
H           0.87470         3.80370        -2.13760
C           2.45690         3.35890        -0.75730
H           3.50650         3.05490        -0.76940
H           2.39390         4.29400        -0.20200
C           1.64370         2.30230         0.04170
H           2.10150         2.16540         1.02550
H           0.63390         2.68750         0.20200
C           2.60140         4.75010        -3.04010
C           2.39630         6.11720        -2.29150
H           1.34210         6.27790        -2.05420
H           2.73370         6.95970        -2.90120
H           2.96610         6.15390        -1.36220
C           4.13770         4.54960        -3.25990
H           4.33820         3.63820        -3.82500
H           4.56200         5.38780        -3.82030
H           4.66610         4.48690        -2.30760
C           1.92930         4.90880        -4.45230
H           2.15810         4.06270        -5.10160
H           2.28760         5.80530        -4.96550
H           0.84360         4.98770        -4.36120

