#Put Keywords Here, check Charge and Multiplicity.

 4-Hydroxybenzaldehyde

0  1
C           1.57880         0.25390        -0.20360
H           2.49140         0.46530        -0.53500
C           0.49830         1.05670        -0.55540
C          -0.81640         0.78250        -0.10020
H          -1.00410        -0.02050         0.50470
C          -1.89750         1.60350        -0.46950
H          -2.83690         1.38580        -0.12740
C          -1.68960         2.71250        -1.30890
C          -0.39050         3.00530        -1.76380
H          -0.22930         3.81440        -2.36790
C           0.69080         2.18480        -1.39160
H           1.62160         2.42230        -1.74390
O           1.46930        -0.73120         0.51300
O          -2.66450         3.42620        -1.65060
H          -2.55130         4.10730        -2.19570

