#Put Keywords Here, check Charge and Multiplicity.

 trans-3-Hexen-1-ol

0  1
C           2.34490         3.20820         1.57090
H           1.56370         2.50480         1.86760
H           3.21530         3.06270         2.21500
C           2.72550         2.99670         0.08770
H           3.50070         3.71470        -0.18700
H           1.84850         3.20910        -0.53200
C           3.24160         1.65670        -0.14350
H           4.06040         1.39180         0.35660
C           2.67660         0.76220        -0.97280
H           1.86260         1.01450        -1.48410
C           3.17450        -0.59350        -1.13110
H           4.26200        -0.62250        -1.02250
H           2.93760        -0.94840        -2.13730
C           2.53340        -1.54800        -0.09880
H           2.93100        -2.55750        -0.22570
H           2.75330        -1.21410         0.91840
H           1.44970        -1.58120        -0.23330
O           1.85930         4.52940         1.76820
H           1.64700         4.57330         2.72220

