#Put Keywords Here, check Charge and Multiplicity.

 3-Methyl-3-pentanol

0  1
C           2.45440        -3.24580        -2.22030
H           1.88050        -3.83390        -2.93930
H           3.38930        -2.94050        -2.69420
H           2.67580        -3.88450        -1.36620
C           1.63080        -2.00520        -1.79120
H           1.36060        -1.49510        -2.71680
H           0.70360        -2.34970        -1.32530
C           2.34470        -0.98360        -0.83970
C           1.44810         0.27310        -0.55010
H           0.53750        -0.04350        -0.03380
H           1.98620         0.94410         0.12620
C           1.03090         1.12360        -1.77780
H           0.48000         2.00510        -1.44430
H           0.37610         0.56020        -2.44220
H           1.90930         1.45480        -2.33460
O           3.54360        -0.53670        -1.48050
H           3.95660         0.09580        -0.85540
C           2.75770        -1.64300         0.51360
H           3.23330        -0.91330         1.17250
H           3.47640        -2.44740         0.35450
H           1.88610        -2.05330         1.02830

