#Put Keywords Here, check Charge and Multiplicity.

 Pyrazine

0  1
C          -0.72490         1.19620         0.00000
H          -1.74610         1.21130         0.00000
C          -0.02150        -0.02210         0.00000
H          -0.51910        -0.91400         0.00000
N          -0.02180         2.35880         0.00000
N           1.33680         0.00550         0.00000
C           2.03990         1.16810         0.00000
H           3.06110         1.15300         0.00000
C           1.33650         2.38640         0.00000
H           1.83410         3.27830         0.00000

