#Put Keywords Here, check Charge and Multiplicity.

 2-Methoxynaphthalene

0  1
C           1.05300         1.86710        -0.23810
H           0.23830         2.33800         0.16490
C           1.19410         0.46600        -0.08690
C           2.31020        -0.16990        -0.66900
H           2.42310        -1.18440        -0.59470
C           3.28750         0.57310        -1.35390
H           4.08940         0.08350        -1.76040
C           3.16360         1.97280        -1.48150
C           4.15170         2.73290        -2.14700
H           4.98920         2.28270        -2.52490
C           3.99760         4.12130        -2.29840
H           4.71240         4.66160        -2.78860
C           2.86210         4.76550        -1.77940
H           2.75120         5.77480        -1.89610
C           1.88050         4.02330        -1.09890
H           1.06230         4.51230        -0.72720
C           2.02220         2.62610        -0.93450
O           0.37890        -0.28160         0.55550
C          -0.73810         0.01950         1.22840
H          -1.14090        -0.88680         1.67990
H          -0.52730         0.73120         2.02790
H          -1.49000         0.43680         0.55670

