#Put Keywords Here, check Charge and Multiplicity.

 1-Methylpyrrole

0  1
N          -0.40400         1.27860         0.00160
C           0.67670         2.08880        -0.00330
H           0.65740         3.11050        -0.00370
C           1.82900         1.31240        -0.00170
H           2.79280         1.65390         0.00030
C           1.41290        -0.01100        -0.00150
H           2.01210        -0.83920         0.00040
C           0.02260        -0.00190        -0.00310
H          -0.57200        -0.83470        -0.00340
C          -1.76620         1.70580         0.00030
H          -2.10360         1.81350        -1.03140
H          -2.40450         0.98300         0.51150
H          -1.87570         2.66430         0.51110

