#Put Keywords Here, check Charge and Multiplicity.

 10-Undecen-1-ol

0  1
C           6.32410        -8.47620        -5.80380
H           7.17160        -8.72850        -5.16520
H           5.44610        -9.02770        -5.46510
C           6.05120        -6.95510        -5.75100
H           6.93380        -6.42470        -6.11820
H           5.21570        -6.72270        -6.41680
C           5.71690        -6.46410        -4.31780
H           6.55430        -6.70140        -3.65420
H           4.83500        -7.00000        -3.95330
C           5.44050        -4.93680        -4.25420
H           4.60240        -4.69850        -4.91310
H           6.32160        -4.39950        -4.61240
C           5.10550        -4.45720        -2.81530
H           4.22590        -4.99980        -2.45570
H           5.94550        -4.69710        -2.15650
C           4.82370        -2.93220        -2.73570
H           3.98530        -2.68980        -3.39420
H           5.70370        -2.38950        -3.09150
C           4.48820        -2.46970        -1.29160
H           5.32730        -2.71750        -0.63580
H           3.60750        -3.01210        -0.93840
C           4.21030        -0.94440        -1.20440
H           3.37130        -0.69900        -1.86270
H           5.09200        -0.40630        -1.56500
C           3.87410        -0.47390         0.23760
H           2.95720        -0.97100         0.57090
H           4.67020        -0.77500         0.92620
C           3.67100         0.96670         0.30230
H           2.74600         1.31700         0.20290
C           4.66590         1.84760         0.46080
H           4.47350         2.82200         0.48290
H           5.60530         1.54790         0.55490
O           6.62500        -8.87710        -7.13550
H           6.78260        -9.84270        -7.07890

