#Put Keywords Here, check Charge and Multiplicity.

 b-Bromostyrene (rac)

0  1
C           1.41030         0.15720         0.00000
H           2.04270        -0.60440         0.00000
C           0.07940        -0.01470         0.00000
H          -0.45640         0.82320         0.00000
C          -0.62410        -1.23000         0.00000
C           0.00110        -2.50680         0.00000
H           1.01630        -2.60250         0.00000
C          -0.75740        -3.69290         0.00000
H          -0.28560        -4.60030         0.00000
C          -2.15990        -3.63300         0.00000
H          -2.71190        -4.49640         0.00000
C          -2.80450        -2.38550         0.00000
H          -3.82570        -2.34240         0.00000
C          -2.04500        -1.19960         0.00000
H          -2.54900        -0.30780         0.00000
Br          2.13100         1.84030         0.00000

