#Put Keywords Here, check Charge and Multiplicity.

 2-Methyl 3-(3,4-methylendioxyphenyl) propanol

0  1
C           1.07360        -4.30570         2.60340
H           1.56460        -5.09310         2.02870
H           1.12160        -4.57220         3.66180
C           1.77010        -2.93520         2.35780
H           1.22400        -2.18820         2.94430
C           1.70500        -2.51650         0.84830
H           2.20990        -3.27520         0.24210
H           0.66110        -2.51460         0.51550
O          -0.30250        -4.26500         2.23800
H          -0.63670        -5.17070         2.40880
C           2.29160        -1.17480         0.56790
C           3.65780        -1.05330         0.20300
H           4.25330        -1.87470         0.08880
C           4.20220         0.22700         0.02680
C           3.43080         1.36330         0.17170
C           2.06690         1.28130         0.48780
H           1.50060         2.12780         0.57520
C           1.50310         0.00320         0.68790
H           0.51050        -0.06220         0.92620
C           5.41840         1.93000        -0.27160
H           5.74180         2.28060        -1.25400
H           6.11050         2.29450         0.49230
O           5.36430         0.58960        -0.24610
O           4.17080         2.35140        -0.01420
C           3.22550        -2.98630         2.90750
H           3.68150        -1.99520         2.89250
H           3.23940        -3.33390         3.94300
H           3.83590        -3.66310         2.30720

