#Put Keywords Here, check Charge and Multiplicity.

 Methyl formate

0  1
C           1.28330         0.00210         0.00000
H           1.90950         0.77390         0.00000
O           1.74630        -1.12730         0.00000
O           0.05260         0.14590         0.00000
C          -0.63710         1.29160         0.00000
H          -0.41440         1.88250        -0.89170
H          -1.70190         1.05680         0.00000
H          -0.41440         1.88250         0.89170

