#Put Keywords Here, check Charge and Multiplicity.

 6435033

0  1
O           2.11910        -4.21580        -0.46820
O           0.40040        -5.24130        -1.21490
C           2.87830        -1.97770        -0.09650
C           1.91170        -2.93670        -0.84130
C           2.97910        -0.67740        -0.74800
C           4.00080         0.89400        -2.35660
C           3.89850        -0.39390        -1.68840
C           2.31880        -6.41920        -1.09270
C           1.59280        -5.25760        -0.92440
C           4.81710         1.91200        -1.53230
C           1.62820        -7.69970        -0.86240
C           3.62100        -6.43970        -1.47330
C           4.47550        -5.29490        -1.73370
H           3.86790        -2.43890        -0.02890
H           2.52120        -1.83860         0.92860
H           2.08320        -2.85780        -1.91910
H           0.87770        -2.64360        -0.63560
H           2.32370         0.02290        -0.48570
H           4.49620         0.75550        -3.32180
H           3.00660         1.30070        -2.56140
H           4.55880        -1.09430        -1.93980
H           4.87310         2.86330        -2.06350
H           5.83190         1.54150        -1.37640
H           4.34710         2.08440        -0.56270
H           1.23600        -7.73230         0.15660
H           0.79730        -7.80880        -1.56370
H           2.26910        -8.57780        -0.98980
H           4.06610        -7.32320        -1.58430
H           4.02080        -4.62880        -2.46780
H           5.44250        -5.61940        -2.12470
H           4.65650        -4.75080        -0.80850

