#Put Keywords Here, check Charge and Multiplicity.

 8127

0  1
N          -4.38480        -0.26650        -0.02040
C           0.62360        -0.43340         0.02660
C          -0.64120         0.43000         0.01630
C           1.91770         0.38170        -0.02080
C          -1.93600        -0.38630        -0.01090
C           3.14630        -0.52850         0.00430
C          -3.16180         0.52670         0.01480
C           4.43620         0.27630        -0.00990
H           0.59780        -1.11520        -0.83260
H           0.62010        -1.05980         0.92730
H          -0.63710         1.07720         0.90210
H          -0.61620         1.09140        -0.85880
H           1.93170         0.99680        -0.92860
H           1.94820         1.06700         0.83490
H          -1.95160        -1.01130        -0.91260
H          -1.95620        -1.06330         0.85220
H           3.13030        -1.19970        -0.86230
H           3.12640        -1.15720         0.90220
H          -3.16060         1.14270         0.92040
H          -3.15090         1.20530        -0.84480
H           4.50290         0.89430        -0.91090
H           4.49820         0.93360         0.86330
H           5.30140        -0.39390         0.00730
H          -4.39860        -0.90960         0.77060
H          -4.38980        -0.85100        -0.85570

