#Put Keywords Here, check Charge and Multiplicity.

 6566010

0  1
O           1.04380         0.63980        -0.00810
O           2.51740         2.34300        -0.01820
C           0.75320        -0.73220         0.34300
C          -0.63670        -1.05590        -0.18810
C           1.79020        -1.70390        -0.19720
C          -1.67720        -0.05900         0.32160
C           3.15890        -1.24080         0.25750
C           3.42400         0.15020        -0.27900
C          -3.06570        -0.36760        -0.24100
C           2.30450         1.13300        -0.04950
C          -4.11250         0.60870         0.29480
C          -5.49990         0.28460        -0.23600
H           0.73540        -0.77900         1.43940
H          -0.92060        -2.07490         0.10050
H          -0.62820        -1.01560        -1.28490
H           1.76190        -1.72800        -1.29370
H           1.59160        -2.71930         0.16300
H          -1.70840        -0.09160         1.41760
H          -1.40410         0.96380         0.03660
H           3.93120        -1.93220        -0.09660
H           3.20600        -1.23530         1.35340
H           3.59880         0.10730        -1.36040
H           4.33020         0.54540         0.19370
H          -3.04020        -0.31560        -1.33620
H          -3.34980        -1.39260         0.02720
H          -4.13070         0.57170         1.39020
H          -3.84710         1.63310         0.00900
H          -5.52490         0.34240        -1.32890
H          -6.23240         0.99560         0.15870
H          -5.80900        -0.72220         0.06230

