#Put Keywords Here, check Charge and Multiplicity.

 284

0  1
O          -1.16850         0.18250         0.00000
O           1.11460         0.21030         0.00000
C           0.05380        -0.39270         0.00000
H          -0.05110        -1.48750         0.00020
H          -1.11420         1.16200         0.00000

