#Put Keywords Here, check Charge and Multiplicity.

 176

0  1
O          -0.30350         1.28900        -0.00020
O          -0.98000        -0.88780        -0.00020
C           1.37430        -0.35160        -0.00020
C          -0.09070        -0.04960         0.00060
H           1.83680         0.05700        -0.90210
H           1.84000         0.06760         0.89520
H           1.52070        -1.43560         0.00640
H          -1.25980         1.50810        -0.00080

