#Put Keywords Here, check Charge and Multiplicity.

 5280450

0  1
O          -7.16400         0.19390         0.89170
O          -5.99100        -0.76250        -0.80720
C          -1.18170         1.31280        -0.34190
C          -0.00740         2.15180         0.17230
C          -2.47800         1.54060         0.43990
C           1.29560         1.90470        -0.59560
C          -3.61460         0.67020        -0.10770
C           2.45610         2.78760        -0.12250
C          -4.91620         0.85020         0.67350
C           2.31210        -2.27970        -0.29450
C           0.87990        -2.61780         0.13060
C           3.73690         2.52590        -0.86150
C           3.21960        -2.08810         0.92670
C          -0.05540        -2.88780        -1.05010
C           4.63790         1.60490        -0.48840
C           4.47700         0.72180         0.71440
C           4.66690        -1.77700         0.65410
C          -6.04860         0.00650         0.14060
C           5.23550        -0.56510         0.55760
C          -1.46050        -3.29280        -0.63210
H          -1.35130         1.54450        -1.40070
H          -0.91110         0.25120        -0.28970
H          -0.27020         3.21460         0.10430
H           0.15590         1.93200         1.23450
H          -2.31290         1.30610         1.49830
H          -2.76260         2.59790         0.38170
H           1.12100         2.08410        -1.66430
H           1.56520         0.84750        -0.49830
H          -3.31710        -0.38520        -0.07630
H          -3.78590         0.91350        -1.16390
H           2.59780         2.67410         0.95900
H           2.19120         3.84240        -0.26910
H          -5.22710         1.90010         0.62820
H          -4.75260         0.57490         1.72160
H           2.31310        -1.37190        -0.90800
H           2.71050        -3.08790        -0.92000
H           0.89650        -3.50290         0.77890
H           0.47440        -1.79370         0.73050
H           3.93340         3.12400        -1.74720
H           2.78390        -1.33350         1.59140
H           3.20330        -3.01290         1.51980
H           0.36780        -3.68300        -1.67520
H          -0.11500        -1.98960        -1.67620
H           5.55050         1.52070        -1.07430
H           3.42420         0.55000         0.94090
H           4.90580         1.24470         1.57860
H           5.31140        -2.64260         0.51170
H           6.30440        -0.50570         0.36690
H          -1.44200        -4.21900        -0.04920
H          -2.08800        -3.45640        -1.51360
H          -1.92520        -2.51280        -0.02130
H          -7.91390        -0.35400         0.57590

