#Put Keywords Here, check Charge and Multiplicity.

 8908

0  1
O          -0.05230        -0.33650         0.13370
O           2.05630         0.01550         0.25040
C          -1.94690        -2.49470        -2.24180
C          -3.20930        -3.39120        -2.15740
C          -1.59020        -1.80670        -0.89690
C          -3.55810        -4.07670        -3.50780
C          -0.32090        -0.93420        -1.03400
C          -4.81770        -4.96920        -3.41700
C           0.90460         0.41320         0.37110
C           0.65500         1.75400         0.82960
H          -2.11310        -1.72290        -2.99920
H          -1.09940        -3.11010        -2.55800
H          -3.04350        -4.16430        -1.40210
H          -4.05820        -2.77740        -1.84380
H          -2.42550        -1.17600        -0.57470
H          -1.41640        -2.56870        -0.13000
H          -2.71770        -4.69820        -3.83030
H          -3.73090        -3.31310        -4.27170
H           0.51630        -1.57050        -1.34520
H          -0.49270        -0.17060        -1.80180
H          -5.02180        -5.42760        -4.38750
H          -4.66810        -5.76360        -2.68220
H          -5.68530        -4.37300        -3.12510
H          -0.30490         2.11380         0.45240
H           1.43690         2.43240         0.48320
H           0.63210         1.76210         1.91860

