#Put Keywords Here, check Charge and Multiplicity.

 1060

0  1
O          -1.45810        -0.99610         0.00820
O           1.05910        -1.31650        -0.01430
O          -1.19400         1.28250        -0.01800
C           0.71110        -0.14520        -0.00010
C           1.64430         1.02730         0.01000
C          -0.76240         0.14800         0.01410
H           1.48100         1.63860        -0.88100
H           2.67750         0.66890         0.00450
H           1.48420         1.62040         0.91380
H          -2.42680        -0.84230        -0.00730

