#Put Keywords Here, check Charge and Multiplicity.

 135309

0  1
O           1.27400         1.83140        -0.94800
O           1.22780         1.40160         1.27620
C           0.82600        -0.43550        -0.24570
C          -0.54100        -0.88850         0.29920
C          -1.74830        -0.11270        -0.24540
C           1.94490        -1.38220         0.22430
C          -3.12070        -0.59500         0.23090
C           1.12630         1.00990         0.11910
C           3.28480        -1.08760        -0.43790
C          -4.27390         0.25870        -0.27260
H           0.77760        -0.49500        -1.34180
H          -0.54180        -0.81010         1.39410
H          -0.68410        -1.95060         0.06270
H          -1.72590        -0.15240        -1.34180
H          -1.64070         0.94460         0.02710
H           2.06430        -1.31270         1.31240
H           1.66800        -2.41880        -0.00280
H          -3.27260        -1.63060        -0.09520
H          -3.13950        -0.60130         1.32720
H           3.65280        -0.09170        -0.17300
H           4.03310        -1.81730        -0.11240
H           3.20500        -1.14800        -1.52790
H          -5.22680        -0.13310         0.09630
H          -4.30700         0.26290        -1.36670
H          -4.17380         1.29270         0.07200
H           1.46700         2.75390        -0.67630

