#Put Keywords Here, check Charge and Multiplicity.

 10448

0  1
S          -1.97130         0.77610         0.00530
O           3.14230         0.20450        -0.00440
C           0.75390         0.39290        -0.00560
C          -0.56420        -0.37110         0.01480
C           1.94380        -0.55850         0.00060
C          -3.30450        -0.44400        -0.01080
H           0.82860         1.06210         0.86140
H           0.81760         1.03650        -0.89270
H          -0.62300        -0.99460         0.91310
H          -0.63240        -1.02180        -0.86340
H           1.93610        -1.18770         0.89630
H           1.93540        -1.20020        -0.88620
H          -4.26710         0.07440        -0.01520
H          -3.25460        -1.07530         0.88020
H          -3.24160        -1.06620        -0.90740
H           3.88210        -0.42650        -0.00030

