#Put Keywords Here, check Charge and Multiplicity.

 10290825

0  1
C          -1.11980        -0.30760        -0.22900
C          -0.83800         1.12180         0.31830
C           0.06160        -0.74590         0.69240
C          -0.41520         0.40480         1.63320
C           0.32400         1.82590        -0.39020
C           1.39100        -0.45150         0.07720
C           1.56820         0.92260        -0.51810
C          -2.48100        -0.91120         0.05710
C          -0.83960        -0.47200        -1.71660
C           2.34880        -1.38690         0.07570
H          -1.71500         1.77050         0.41510
H          -0.02580        -1.74920         1.12330
H          -1.23440         0.14480         2.31270
H           0.35700         0.90420         2.22810
H           0.59350         2.73060         0.16920
H           0.00980         2.17370        -1.38180
H           2.39360         1.41890         0.01020
H           1.89020         0.86380        -1.56460
H          -3.26480        -0.40580        -0.51860
H          -2.50390        -1.97460        -0.20700
H          -2.76580        -0.84000         1.11100
H           0.09470        -0.09090        -2.11810
H          -0.86420        -1.53550        -1.98720
H          -1.62870         0.01840        -2.30110
H           2.19060        -2.36730         0.51220
H           3.31900        -1.18780        -0.36730

