#Put Keywords Here, check Charge and Multiplicity.

 637523

0  1
O           0.74550         2.60930         1.15000
O          -1.07930         3.45460         0.45440
C           4.08570         4.26980         1.63830
C           5.27230         4.09330         2.62580
C           2.90730         3.29160         1.90220
C           6.42840         5.09080         2.33730
C           1.72250         3.50970         0.92570
C           7.62270         4.94470         3.30620
C          -0.33420         2.48340         0.52810
C          -0.69770         1.28360        -0.04500
C          -2.12610         0.93050        -0.05340
C           0.25300         0.48680        -0.59480
C           0.03700        -0.79540        -1.23760
H           3.71780         5.29690         1.71570
H           4.45150         4.11420         0.61930
H           4.91360         4.24960         3.64770
H           5.65470         3.07080         2.54890
H           3.26490         2.26400         1.79380
H           2.55120         3.42710         2.92710
H           6.79150         4.93540         1.31720
H           6.04810         6.11380         2.41180
H           1.33770         4.52770         1.05060
H           2.08730         3.39570        -0.10160
H           8.39480         5.67220         3.04830
H           7.30340         5.12590         4.33400
H           8.05040         3.94320         3.23440
H          -2.53340         0.99690         0.95920
H          -2.67430         1.62250        -0.69740
H          -2.33530        -0.07640        -0.41740
H           1.20340         0.78680        -0.57260
H          -0.33530        -1.51680        -0.50820
H          -0.68210        -0.70100        -2.05420
H           0.97480        -1.17610        -1.65300

