#Put Keywords Here, check Charge and Multiplicity.

 5281520

0  1
C          -2.38710        -0.02200        -0.06830
C          -1.82040         1.42810        -0.26630
C          -1.27590        -1.02060        -0.37770
C          -3.65620        -0.20940        -0.92660
C          -2.79430        -0.19680         1.40760
C          -0.51740         1.67530         0.46370
C           0.69900         1.91690        -0.07010
C           1.93410         1.90720         0.82190
C          -0.68780        -1.87720         0.47670
C           2.81490         0.65010         0.63660
C           0.62170        -2.56820         0.17330
C           1.73360        -1.56190        -0.09720
C           2.00700        -0.60750         0.81750
C           0.97060         2.14430        -1.53130
C           2.35810        -1.65840        -1.45980
H          -2.55360         2.16180         0.09320
H          -1.71390         1.61510        -1.33950
H          -0.85260        -0.92790        -1.37780
H          -4.42490         0.52670        -0.66670
H          -3.42650        -0.09340        -1.99170
H          -4.08220        -1.20960        -0.78830
H          -3.55260         0.54740         1.68310
H          -3.24760        -1.17990         1.58750
H          -1.96960        -0.07110         2.11680
H          -0.57450         1.56570         1.54510
H           2.53380         2.80380         0.62160
H           1.64110         1.97830         1.87810
H          -1.04770        -2.01260         1.49090
H           3.61740         0.66330         1.38340
H           3.30110         0.69510        -0.34160
H           0.90950        -3.20180         1.02120
H           0.48130        -3.24380        -0.67920
H           1.49890        -0.66660         1.78040
H           0.06890         2.34650        -2.11290
H           1.46810         1.27540        -1.97140
H           1.62300         3.01480        -1.65990
H           1.61750        -1.43620        -2.23460
H           2.73510        -2.67370        -1.62470
H           3.20510        -0.98320        -1.59800

