#Put Keywords Here, check Charge and Multiplicity.

 5281515

0  1
C          -2.46110         0.04710         0.00010
C          -0.98610         0.46430         0.27520
C          -0.59230        -0.91780        -0.37410
C          -1.99990        -1.42240         0.03620
C          -0.59590         1.76550        -0.44500
C          -3.50190         0.35010         1.06150
C          -2.96760         0.48640        -1.35630
C           0.60740        -1.65140         0.16000
C           0.73200         2.36940         0.05490
C           1.76780        -1.89400        -0.79530
C           1.87510         1.38380         0.14700
C           2.81870        -0.76320        -0.80890
C           0.65830        -2.07180         1.43310
C           2.13150         0.56720        -0.89330
C           2.51410         1.28680         1.50490
H          -0.78090         0.52660         1.35400
H          -0.51470        -0.85030        -1.46940
H          -2.47880        -2.09310        -0.68520
H          -2.07670        -1.89140         1.02350
H          -1.36710         2.52650        -0.26960
H          -0.53940         1.61810        -1.52950
H          -3.71040         1.42440         1.11130
H          -4.44490        -0.16850         0.85640
H          -3.16340         0.03930         2.05620
H          -2.28300         0.26040        -2.17990
H          -3.90860        -0.02400        -1.59690
H          -3.18100         1.56070        -1.38410
H           0.54350         2.79200         1.05080
H           1.02290         3.21370        -0.58160
H           2.27220        -2.83550        -0.54110
H           1.37590        -2.04200        -1.81010
H           3.48210        -0.88580        -1.67260
H           3.45260        -0.85210         0.07740
H          -0.14370        -1.89340         2.13960
H           1.53080        -2.59640         1.80930
H           1.61970         0.74620        -1.83760
H           1.79540         0.91120         2.24000
H           2.84940         2.27870         1.82760
H           3.39420         0.64090         1.52630

