#Put Keywords Here, check Charge and Multiplicity.

 443162

0  1
O          -2.13340         0.14290        -1.37320
C          -0.50250        -0.01810         0.36600
C          -1.99330         0.00540         0.03630
C           0.18310        -1.23840        -0.25670
C           0.18130         1.27450        -0.10770
C           1.66730        -1.29190         0.11910
C           2.36300         0.04360         0.03540
C           1.67960         1.19510        -0.08170
C          -2.66840         1.18450         0.72300
C          -2.63840        -1.31040         0.44700
C           3.86170         0.01280         0.09240
H          -0.38060        -0.08910         1.45740
H           0.09270        -1.21120        -1.35040
H          -0.26130        -2.18050         0.07850
H          -0.11230         2.10450         0.54560
H          -0.11650         1.54510        -1.12730
H           2.16510        -2.01280        -0.54070
H           1.76920        -1.67050         1.14390
H           2.21670         2.13680        -0.15980
H          -2.48920         1.18580         1.80320
H          -3.75320         1.15240         0.56370
H          -2.34730         2.14490         0.30630
H          -2.36840        -2.13750        -0.21790
H          -2.40070        -1.58060         1.48120
H          -3.73060        -1.23860         0.36980
H          -3.08340         0.16420        -1.58030
H           4.19570        -0.45010         1.02670
H           4.29790         1.01610         0.04310
H           4.26210        -0.56650        -0.74570

