#Put Keywords Here, check Charge and Multiplicity.

 442501

0  1
O          -2.13300         0.11680         1.37560
C          -0.50260        -0.02630        -0.36540
C          -1.99320        -0.00260        -0.03560
C           0.18550        -1.23920         0.26870
C           0.17880         1.27220         0.09560
C           1.66950        -1.29370        -0.10720
C           2.36300         0.04370        -0.03580
C           1.67750         1.19510         0.07060
C          -2.65750        -1.29260        -0.49640
C          -2.64970         1.21110        -0.67760
C           3.86160         0.01530        -0.09240
H          -0.38100        -0.10510        -1.45620
H          -0.26180        -2.18390        -0.05510
H           0.09680        -1.20080         1.36210
H          -0.12030         1.55210         1.11230
H          -0.11330         2.09540        -0.56700
H           1.77170        -1.68120        -1.12870
H           2.16890        -2.00780         0.55860
H           2.21280         2.13850         0.13990
H          -2.42950        -1.52180        -1.54240
H          -3.74800        -1.21330        -0.40570
H          -2.38750        -2.14850         0.13050
H          -2.32910         2.15180        -0.21770
H          -2.46020         1.25650        -1.75520
H          -3.73650         1.18080        -0.53240
H          -3.08280         0.11930         1.58440
H           4.26300        -0.55550         0.75110
H           4.29590         1.01980        -0.05220
H           4.19650        -0.45550        -1.02220

