#Put Keywords Here, check Charge and Multiplicity.

 643820

0  1
O           2.28290         2.29390         0.16110
C           0.74300        -1.28540        -1.12710
C          -0.78220        -1.17070        -1.24830
C           1.26600        -1.01690         0.26860
C          -1.29110         0.19310        -0.87150
C          -2.23520         0.50650         0.03590
C           0.78390        -1.97450         1.32830
C           2.12430        -0.03000         0.59260
C          -2.61840         1.94390         0.26870
C          -2.97510        -0.47800         0.89610
C           2.70200         1.01810        -0.30430
H           1.04070        -2.30190        -1.41600
H           1.20300        -0.63090        -1.87270
H          -1.25620        -1.97170        -0.67610
H          -1.05700        -1.35220        -2.29520
H          -0.83600         1.00830        -1.43360
H           0.96710        -3.00840         1.01770
H          -0.28650        -1.84920         1.51240
H           1.29870        -1.82710         2.28400
H           2.44120         0.05010         1.63190
H          -2.43190         2.22130         1.31140
H          -2.05220         2.63540        -0.36420
H          -3.68180         2.09230         0.05380
H          -4.05470        -0.36420         0.75050
H          -2.73360        -1.52090         0.68560
H          -2.75070        -0.29500         1.95220
H           2.41980         0.92960        -1.35390
H           3.79450         0.98110        -0.25120
H           1.31650         2.34100         0.05980

