#Put Keywords Here, check Charge and Multiplicity.

 6428573

0  1
O           0.38840         0.15370         0.79910
O          -1.59740         1.17040        -0.88610
C          -0.70250        -0.67510         0.36170
C           1.60900        -0.31530         0.18840
C          -0.20700        -1.41770        -0.86610
C           1.25050        -1.62170        -0.52250
C          -1.92450         0.18250         0.09750
C           2.65330        -0.52170         1.28060
C          -2.38090         0.90770         1.36780
C          -3.07180        -0.65720        -0.47150
C           2.07540         0.74090        -0.77080
C           1.90740         2.05370        -0.57820
H          -0.90240        -1.39230         1.16880
H          -0.28410        -0.81420        -1.77780
H          -0.73480        -2.36060        -1.03610
H           1.33780        -2.47410         0.16350
H           1.86840        -1.84170        -1.39890
H           2.29520        -1.23870         2.02870
H           3.59940        -0.89320         0.87230
H           2.85190         0.40880         1.82580
H          -3.26190         1.52870         1.16850
H          -2.63120         0.20140         2.16600
H          -1.60570         1.58980         1.73460
H          -2.82710        -1.06510        -1.45820
H          -3.96710        -0.04150        -0.61860
H          -3.33440        -1.48410         0.19660
H           2.63660         0.42280        -1.64620
H          -2.38800         1.71510        -1.04090
H           2.29670         2.76420        -1.29960
H           1.39330         2.45120         0.28950

