#Put Keywords Here, check Charge and Multiplicity.

 11116492

0  1
O          -0.40660        -0.09340        -0.82590
O           1.62850        -1.19650         0.76840
C           0.64730         0.72340        -0.28770
C          -1.65240         0.27440        -0.19810
C           0.11850         1.29240         1.01610
C          -1.34430         1.48490         0.68750
C           1.90460        -0.10720        -0.11900
C          -2.66570         0.61500        -1.28790
C           3.04290         0.72230         0.48410
C           2.34440        -0.71420        -1.45440
C          -2.12090        -0.90950         0.59790
C          -1.49620        -2.09180         0.61900
H           0.81690         1.53760        -1.00450
H           0.61020         2.22660         1.30290
H           0.20210         0.59460         1.85530
H          -1.97520         1.55650         1.57940
H          -1.46220         2.42000         0.12510
H          -2.84330        -0.24550        -1.94410
H          -3.62530         0.93160        -0.86520
H          -2.28890         1.41700        -1.93320
H           3.94650         0.11160         0.59660
H           3.28750         1.58420        -0.14530
H           2.79890         1.08310         1.48910
H           1.58310        -1.39200        -1.85630
H           3.24930        -1.31970        -1.32520
H           2.55190         0.06010        -2.20010
H          -3.01730        -0.78690         1.20120
H           1.67660        -0.87770         1.68480
H          -1.89560        -2.89610         1.22900
H          -0.61240        -2.31790         0.03710

