#Put Keywords Here, check Charge and Multiplicity.

 638011

0  1
O          -3.91020        -1.35330         0.22220
C          -0.22550         1.80550         0.70060
C           1.27160         1.61690         0.42100
C          -1.11450         0.83200        -0.04680
C           1.76280         0.24550         0.79370
C           2.42070        -0.64000         0.02160
C          -1.04420         0.93770        -1.55000
C          -1.95110        -0.06090         0.51240
C           2.84240        -1.97200         0.58280
C           2.78490        -0.43320        -1.42120
C          -2.83680        -0.97820        -0.23630
H          -0.51560         2.82970         0.43480
H          -0.40340         1.71170         1.78010
H           1.48210         1.87080        -0.62080
H           1.82690         2.34580         1.02460
H           1.56750        -0.03040         1.82970
H          -1.98460         0.68470        -2.04810
H          -0.25070         0.29470        -1.94290
H          -0.82360         1.96880        -1.84950
H           3.93020        -2.08150         0.52140
H           2.37820        -2.78580         0.01610
H           2.55550        -2.09350         1.63270
H           3.86910        -0.51970        -1.54920
H           2.49050         0.53930        -1.81870
H           2.30450        -1.19750        -2.04140
H          -2.05070        -0.09940         1.59350
H          -2.49540        -1.28700        -1.23660

