#Put Keywords Here, check Charge and Multiplicity.

 261491

0  1
O          -2.35530         1.66700         0.00020
C           0.70690        -0.10940        -0.42950
C          -0.28600        -1.22690        -0.35320
C           0.46910        -0.98010        -1.63270
C          -1.67320        -0.66820        -0.15700
C           0.00730         1.20750        -0.27860
C           2.00940        -0.25380         0.27680
C          -1.45920         0.84340        -0.13140
C          -2.30220        -1.13360         1.14480
C           3.03980         0.76110        -0.23440
C           1.84350        -0.10700         1.79490
H          -0.06650        -2.13100         0.19600
H          -0.06640        -0.56090        -2.47650
H           1.22440        -1.70410        -1.91560
H          -2.30550        -0.92320        -1.01380
H           0.13660         1.82000        -1.17600
H           0.30370         1.77830         0.60330
H           2.42050        -1.25610         0.09460
H          -1.69110        -0.84810         2.00870
H          -3.29410        -0.68980         1.28040
H          -2.41010        -2.22320         1.15770
H           2.73570         1.79250        -0.02690
H           4.01260         0.59620         0.24090
H           3.17260         0.66520        -1.31750
H           1.57530         0.91030         2.09480
H           2.78270        -0.35480         2.30200
H           1.07270        -0.78450         2.17700

