#Put Keywords Here, check Charge and Multiplicity.

 442343

0  1
O           0.52990        -2.10510         1.43240
C           1.16850        -0.43480        -0.15390
C           0.06510        -1.39620         0.28210
C           1.39830         0.65680         0.89610
C           2.47700        -1.19390        -0.42620
C          -1.20750        -0.60350         0.64830
C           2.46680         1.65310         0.43480
C          -0.18490        -2.42580        -0.82110
C           3.67000         1.00190        -0.20000
C           3.66620        -0.28990        -0.57100
C          -1.73930         0.29630        -0.47450
C           4.87070         1.87970        -0.39510
C          -2.93060         1.08940        -0.01270
C          -4.23190         0.76930        -0.14500
C          -5.37990         1.60850         0.34010
C          -4.63840        -0.50580        -0.83410
H           0.88690         0.05370        -1.09680
H           1.72480         0.21450         1.84570
H           0.50080         1.24340         1.10910
H           2.38420        -1.76270        -1.35890
H           2.70920        -1.91280         0.36770
H          -1.98800        -1.33110         0.91620
H          -1.07180        -0.03510         1.57710
H           2.78020         2.24980         1.29990
H           2.02630         2.34720        -0.29210
H          -1.06600        -3.03220        -0.57910
H          -0.35570        -1.96000        -1.79660
H           0.64060        -3.14020        -0.91160
H           4.55950        -0.72980        -1.00690
H          -1.96800        -0.28490        -1.37240
H          -0.98940         1.03090        -0.78550
H           0.48460        -1.51570         2.20340
H           5.69870         1.34700        -0.87450
H           5.22880         2.25380         0.56950
H           4.61500         2.73610        -1.02730
H          -2.68870         2.01900         0.50080
H          -5.97150         1.05720         1.07790
H          -5.03190         2.53270         0.81310
H          -6.03030         1.88480        -0.49590
H          -3.82480        -1.21760        -0.98860
H          -5.08300        -0.27890        -1.80870
H          -5.38990        -1.02940        -0.23220

