#Put Keywords Here, check Charge and Multiplicity.

 7847

0  1
O          -1.74780        -0.11650        -0.00020
C           0.59360        -0.43630         0.00020
C          -0.63030         0.38560         0.00020
C           1.78440         0.16720        -0.00020
H           0.49720        -1.51480         0.00030
H          -0.48490         1.47880         0.00020
H           2.69390        -0.42430        -0.00020
H           1.88720         1.24690        -0.00040

