#Put Keywords Here, check Charge and Multiplicity.

 25611

0  1
O           0.76240         1.33650        -0.67090
C          -0.46340        -0.45820         0.37220
C           2.12900        -0.37170         0.35410
C          -1.74750         0.22340        -0.09910
C           0.80350         0.28540        -0.03110
C          -3.00320        -0.54020         0.32810
C           3.19750         0.67800         0.65080
C           2.58840        -1.31140        -0.75450
C          -4.26670         0.15820        -0.14980
H          -0.46820        -0.53700         1.46510
H          -0.41050        -1.46860        -0.04750
H           1.96170        -0.94770         1.27220
H          -1.72970         0.31770        -1.19220
H          -1.78630         1.24430         0.30140
H          -2.97610        -1.55710        -0.08010
H          -3.03050        -0.62840         1.42020
H           2.85470         1.37070         1.42710
H           4.12090         0.20520         1.00110
H           3.43620         1.27110        -0.23900
H           2.74780        -0.76960        -1.69340
H           3.52510        -1.80890        -0.48290
H           1.83870        -2.08590        -0.94750
H          -4.28360         0.23460        -1.24170
H          -5.15190        -0.40310         0.16520
H          -4.33840         1.16790         0.26700

