#Put Keywords Here, check Charge and Multiplicity.

 7772

0  1
O           1.46370        -0.20980         2.46370
O           2.84010         0.23030         4.03970
C           1.88820        -0.06130        -1.29210
C           1.40620        -0.53100         0.11880
C           1.94350         0.29610         1.31600
C           1.41510        -1.05260        -2.39270
C           1.41680         1.37940        -1.63610
C           1.69230         0.19990         3.61320
C           0.59440         0.63740         4.45180
C           0.04820        -0.47960         5.36820
H           2.98280        -0.06580        -1.29820
H           0.31420        -0.50450         0.14780
H           1.71440        -1.57030         0.27070
H           3.03790         0.26740         1.31510
H           1.61240         1.33580         1.22510
H           1.78240        -2.05930        -2.18540
H           1.79770        -0.74970        -3.36920
H           0.32440        -1.08140        -2.44190
H           1.88930         2.10400        -0.97230
H           1.68930         1.64170        -2.66040
H           0.33310         1.46410        -1.53080
H          -0.22090         1.00780         3.82200
H           0.92730         1.47310         5.07310
H          -0.77860        -0.08910         5.96330
H           0.82270        -0.83570         6.05010
H          -0.32040        -1.31840         4.77490

