#Put Keywords Here, check Charge and Multiplicity.

 636822

0  1
O          -1.29810        -2.38560         0.33220
O           2.12180         1.89560        -0.29510
O           3.09790        -0.70550        -0.35200
C          -0.95730        -0.01030         0.20500
C          -0.46690        -1.31580         0.17770
C           1.27870         0.83660        -0.14190
C           1.76900        -0.46890        -0.16930
C          -0.08440         1.06590         0.04520
C           0.89620        -1.54510        -0.00930
C          -2.37620         0.25580         0.40090
C          -3.05150         1.32710        -0.06960
C          -1.87250        -2.93460        -0.85160
C           1.54090         3.19760        -0.25480
C          -4.50830         1.56390         0.16440
C           3.91060        -0.77670         0.81810
H          -0.49180         2.06840         0.09970
H           1.27900        -2.56250        -0.03060
H          -2.92410        -0.48230         0.98260
H          -2.55430         2.07890        -0.67610
H          -2.53600        -3.75400        -0.56160
H          -1.09040        -3.33360        -1.50550
H          -2.46030        -2.18260        -1.38700
H           1.10160         3.41400         0.72510
H           0.83240         3.35110        -1.07600
H           2.35410         3.91620        -0.40140
H          -4.65180         2.51610         0.68410
H          -5.03650         1.61070        -0.79280
H          -4.96470         0.77320         0.76800
H           3.58520        -1.60080         1.46100
H           3.87500         0.16760         1.37040
H           4.94260        -0.96160         0.50780

