#Put Keywords Here, check Charge and Multiplicity.

 5281929

0  1
O           2.17370        -2.07890        -0.19810
O          -4.20810         0.80120        -0.71840
O          -3.27330         0.64530         1.38520
C          -0.83380        -0.23840         0.13330
C           0.47420        -0.40580        -0.65780
C          -1.29060        -1.67790         0.38290
C          -0.01350        -2.42030         0.75560
C           1.02350        -1.68380        -0.05380
C          -1.88190         0.57920        -0.60720
C           1.42570         0.76570        -0.50070
C           2.71490         0.52980        -1.23300
C          -3.17460         0.67570         0.16630
C           3.92050         0.54100        -0.64540
C           4.13250         0.79090         0.81840
C          -5.51050         0.90410        -0.13380
C           4.32130         2.27210         1.10660
H          -0.62480         0.22890         1.10640
H           0.26170        -0.61150        -1.71510
H          -1.72140        -2.11290        -0.52800
H          -2.03810        -1.75800         1.17800
H          -0.05980        -3.47490         0.47650
H           0.21930        -2.30680         1.81820
H          -2.08480         0.11830        -1.58190
H          -1.52430         1.59900        -0.78510
H           1.56800         0.99230         0.55900
H           0.96340         1.66210        -0.93300
H           2.65910         0.35830        -2.30500
H           4.80330         0.38130        -1.25870
H           3.33380         0.37400         1.43910
H           5.03900         0.25260         1.12250
H           3.42450         2.84660         0.85190
H           4.52780         2.42520         2.17070
H           5.16260         2.68330         0.53820
H          -6.23990         0.99770        -0.94280
H          -5.57200         1.79410         0.49950
H          -5.73910         0.00240         0.44240

