#Put Keywords Here, check Charge and Multiplicity.

 12570

0  1
O          -0.00200        -2.18600         0.13510
C           1.51200         0.17880         0.66210
C           2.40240         0.26800        -0.58440
C           0.05880         0.20310         0.32020
C          -0.63500        -0.98110         0.07170
C          -0.60490         1.42800         0.25090
C           3.88000         0.27680        -0.22660
C          -1.99250        -0.94050        -0.24620
C          -1.96250         1.46860        -0.06700
C          -2.65630         0.28440        -0.31570
H           1.74250         1.01360         1.33740
H           1.75600        -0.72530         1.23410
H           2.20000        -0.57890        -1.25130
H           2.16710         1.17830        -1.14950
H          -0.07640         2.35870         0.44010
H           4.12440         1.13450         0.40810
H           4.15870        -0.63710         0.30770
H           4.48960         0.34000        -1.13330
H          -2.54550        -1.85520        -0.44230
H          -2.47930         2.42230        -0.12170
H          -3.71320         0.31620        -0.56340
H          -0.64070        -2.89110        -0.06690

