#Put Keywords Here, check Charge and Multiplicity.

 5324489

0  1
O           2.81510         0.88410        -0.38110
C          -0.95720        -0.39950        -0.64850
C          -1.91460         0.02680         0.46460
C           0.14590        -1.26670        -0.11490
C          -3.04890         0.88350        -0.07600
C           1.30890        -0.79080         0.35350
C           1.65070         0.66250         0.40230
H          -1.50740        -0.98270        -1.39820
H          -0.57150         0.46980        -1.19130
H          -1.37670         0.59460         1.23320
H          -2.33740        -0.85790         0.95630
H          -0.02640        -2.33950        -0.09650
H          -3.72310         1.17560         0.73530
H          -2.66320         1.79580        -0.54210
H          -3.63290         0.33580        -0.82250
H           2.04790        -1.49350         0.72920
H           0.87060         1.34570         0.06310
H           1.88970         0.93670         1.43500
H           2.58410         0.70250        -1.30840

