#Put Keywords Here, check Charge and Multiplicity.

 753

0  1
O           0.02350        -1.34930         0.24990
O           2.39880        -0.00440        -0.23690
O          -2.41310        -0.00970        -0.23840
C           0.00010        -0.01240        -0.25550
C           1.25440         0.69800         0.23620
C          -1.26370         0.67780         0.24470
H          -0.00330        -0.09660        -1.34730
H           1.30760         0.71870         1.32980
H           1.30180         1.72460        -0.13870
H          -1.30700         1.71360        -0.10660
H          -1.31000         0.66700         1.33890
H           0.02140        -1.30330         1.22130
H           2.34080        -0.91550         0.09840
H          -3.19170         0.46340         0.10160

