#Put Keywords Here, check Charge and Multiplicity.

 262

0  1
O          -0.79660         1.19120        -0.75890
O           0.80410        -1.19500        -0.75300
C          -0.68850         0.34850         0.38660
C           0.68180        -0.34320         0.38440
C          -1.84190        -0.64800         0.36890
C           1.84100         0.64650         0.37190
H          -0.77060         0.98480         1.27530
H           0.76820        -0.97880         1.27280
H          -1.85280        -1.23020        -0.55880
H          -2.80070        -0.11980         0.41420
H          -1.78580        -1.33550         1.21820
H           2.79580         0.11010         0.40020
H           1.84890         1.24430        -0.54590
H           1.79570         1.32110         1.23200
H          -1.65960         1.63710        -0.71500
H           0.68770        -0.64570        -1.54710

