#Put Keywords Here, check Charge and Multiplicity.

 7966

0  1
O           2.39520         0.00010        -0.11980
C           1.04360         0.00000         0.32710
C           0.34020         1.26400        -0.16590
C           0.34050        -1.26390        -0.16590
C          -1.13910         1.26390         0.20500
C          -1.13890        -1.26410         0.20500
C          -1.84140        -0.00010        -0.28550
H           1.06140         0.00540         1.42380
H           0.45260         1.34760        -1.25470
H           0.83380         2.14970         0.25190
H           0.83160        -2.15080         0.25220
H           0.45290        -1.34770        -1.25470
H          -1.62710         2.14670        -0.22310
H          -1.24190         1.33850         1.29460
H          -1.24160        -1.33860         1.29460
H          -1.62680        -2.14690        -0.22300
H          -2.88210        -0.00010         0.05750
H          -1.86610         0.00000        -1.38220
H           2.81600        -0.80880         0.21800

