#Put Keywords Here, check Charge and Multiplicity.

 11524

0  1
O           2.80690        -0.00590         0.09870
C          -1.42830        -0.00190         0.33620
C          -0.72270        -1.26460        -0.17810
C          -0.72940         1.26460        -0.17740
C           1.45420         0.00550        -0.34410
C           0.76380        -1.25700         0.16560
C           0.75720         1.26500         0.16590
C          -2.90170        -0.00570        -0.06670
H          -1.37890        -0.00210         1.43340
H          -0.84080        -1.34150        -1.26660
H          -1.18970        -2.15680         0.25560
H          -1.20110         2.15410         0.25680
H          -0.84800         1.34140        -1.26580
H           1.46130         0.00050        -1.44060
H           0.89570        -1.33880         1.25240
H           1.25190        -2.14280        -0.25870
H           1.23920         2.15380        -0.25900
H           0.88980         1.34730         1.25260
H          -3.41440         0.87770         0.32830
H          -3.01740        -0.00570        -1.15580
H          -3.40970        -0.89200         0.32780
H           3.23180         0.80180        -0.23700

