#Put Keywords Here, check Charge and Multiplicity.

 638013

0  1
O          -3.30470         0.01410         1.46730
C           1.41140         1.14460        -0.27430
C           0.51010        -0.09880        -0.59940
C           2.00450         0.99040         1.14610
C           2.79690        -0.30730         1.32800
C           1.19910        -1.41620        -0.26740
C           2.55150         1.25220        -1.31710
C           0.61730         2.46700        -0.34590
C           2.22090        -1.48740         0.60460
C          -0.83060        -0.05280         0.08680
C           0.69240        -2.64200        -0.97610
C          -2.01640        -0.00140        -0.53630
C          -3.28670         0.03960         0.23860
C          -4.56580         0.09800        -0.55480
H           0.34040        -0.08500        -1.68640
H           1.19690         1.01500         1.88960
H           2.65510         1.84130         1.38600
H           2.86460        -0.53640         2.39790
H           3.82490        -0.15960         0.97530
H           3.22340         2.08470        -1.07820
H           3.16210         0.34610        -1.37480
H           2.14600         1.43280        -2.31950
H           1.28020         3.33000        -0.21260
H           0.12090         2.57680        -1.31670
H          -0.14720         2.53070         0.43580
H           2.69250        -2.44650         0.80330
H          -0.80840        -0.06830         1.17510
H          -0.35290        -2.83550        -0.71640
H           1.26830        -3.53620        -0.71520
H           0.76340        -2.50900        -2.06060
H          -2.08000         0.01170        -1.61850
H          -5.21740         0.86530        -0.12750
H          -5.05920        -0.87630        -0.51500
H          -4.37630         0.36090        -1.59900

