#Put Keywords Here, check Charge and Multiplicity.

 6992421

0  1
O          -0.52170        -1.66200         0.10580
C           0.68240         0.39560         0.27900
C           1.94970        -0.14170        -0.38760
C          -0.60110        -0.27470        -0.22650
C           3.19040         0.57640         0.12080
C          -1.84160         0.29250         0.40220
C          -2.85810         0.81390        -0.29370
H           0.77350         0.24910         1.36380
H           0.61680         1.47770         0.10660
H           2.05510        -1.21490        -0.19290
H           1.87980        -0.01390        -1.47400
H          -0.65000        -0.20410        -1.31910
H           3.30640         0.44240         1.20110
H           3.13680         1.64940        -0.08920
H           4.08520         0.17920        -0.36870
H          -1.91440         0.26660         1.48670
H          -0.44720        -1.74000         1.07260
H          -3.73070         1.20470         0.21820
H          -2.83960         0.86090        -1.37690

