#Put Keywords Here, check Charge and Multiplicity.

 5363374

0  1
O          -1.45860         0.43470         0.41170
O          -2.56200        -0.75600        -1.23200
C           2.44170         0.30460        -0.42370
C           2.46660        -0.88050         0.54180
C           1.80020         1.50660         0.20650
C           3.13980        -2.09250        -0.08310
C           0.48520         1.76440         0.15360
C          -0.50480         0.88640        -0.53940
C          -2.44020        -0.38620        -0.07210
C          -3.36780        -0.78150         1.03660
H           3.47200         0.57830        -0.68670
H           1.97200         0.03210        -1.37430
H           1.44590        -1.15420         0.83480
H           3.00170        -0.60720         1.45950
H           2.44700         2.19250         0.74730
H           3.14900        -2.92770         0.62420
H           2.60740        -2.41570        -0.98340
H           4.17550        -1.86800        -0.35740
H           0.10740         2.65780         0.64370
H          -1.01710         1.48340        -1.30360
H          -0.06230         0.01740        -1.03100
H          -3.84080         0.10870         1.45890
H          -2.81440        -1.32560         1.80610
H          -4.14900        -1.43630         0.64010

