#Put Keywords Here, check Charge and Multiplicity.

 5367806

0  1
O           1.04520         2.03510         0.74200
O          -0.09710         2.81260        -0.88380
C           3.28530         2.19380         1.58650
C           2.33000         2.15860         0.35660
C           3.05580         3.45980         2.45610
C           4.76890         2.09550         1.14110
C           0.03340         1.98260         0.01050
C          -0.93110         1.02510         0.21340
C          -2.33080         1.43450         0.04760
C          -0.55620        -0.23710         0.53750
C          -1.43560        -1.36870         0.76010
H           3.07210         1.31820         2.20950
H           2.58380         1.29770        -0.27120
H           2.47040         3.07000        -0.23520
H           2.03590         3.47710         2.84330
H           3.74150         3.46370         3.30560
H           3.22410         4.36440         1.86770
H           4.93990         1.16930         0.59010
H           5.42620         2.09570         2.01190
H           5.03610         2.93840         0.50040
H          -2.53470         2.31740         0.65770
H          -2.51580         1.67940        -1.00190
H          -3.05590         0.67560         0.34010
H           0.41680        -0.44060         0.62040
H          -2.12470        -1.16210         1.58080
H          -1.99930        -1.59730        -0.14650
H          -0.86040        -2.25730         1.02820

