#Put Keywords Here, check Charge and Multiplicity.

 38988819

0  1
O          -0.69660        -0.20220         0.26390
O          -2.45850         0.39960        -1.10380
C           1.61590        -0.54240        -0.41480
C           2.21690         0.44950         0.59970
C           0.18910        -0.17790        -0.84660
C           1.64820        -1.95510         0.17950
C           2.29960         1.87690         0.07840
C          -2.00100         0.10850        -0.00690
C          -2.81350         0.04310         1.25070
H           2.24760        -0.54070        -1.31260
H           1.63640         0.44250         1.53030
H           3.23060         0.12060         0.86100
H          -0.15640        -0.90600        -1.59150
H           0.16920         0.81180        -1.31630
H           1.06660        -2.01890         1.10530
H           2.67670        -2.25420         0.40840
H           1.24090        -2.68410        -0.52920
H           2.82380         1.91630        -0.88150
H           1.30660         2.31800        -0.04710
H           2.84830         2.50330         0.78940
H          -2.77940        -0.96910         1.66120
H          -3.85400         0.29270         1.02400
H          -2.43180         0.76610         1.97590

