#Put Keywords Here, check Charge and Multiplicity.

 12278

0  1
O           0.88970         0.68030        -0.41560
O           1.46280        -0.90980         1.15920
C          -1.15090         0.03330         0.72230
C          -0.15150         1.15780         0.43210
C          -1.78110        -0.52170        -0.55820
C          -0.82590         2.34420        -0.24340
C          -2.73800        -1.66450        -0.25630
C           1.62190        -0.36280         0.07630
C           2.67310        -0.75680        -0.91650
H          -1.95080         0.43850         1.35680
H          -0.72760        -0.79080         1.29920
H           0.28930         1.50570         1.37510
H          -1.00780        -0.88690        -1.24280
H          -2.34250         0.25760        -1.08370
H          -1.12270         2.11820        -1.27250
H          -1.69920         2.68810         0.31880
H          -0.11760         3.17760        -0.31570
H          -3.18290        -2.04140        -1.18250
H          -3.54930        -1.33410         0.40030
H          -2.21680        -2.49440         0.23150
H           3.34700         0.08460        -1.09620
H           2.20030        -1.07800        -1.84800
H           3.25610        -1.59090        -0.51580

