#Put Keywords Here, check Charge and Multiplicity.

 440150

0  1
O          -1.20090        -1.30300        -0.74740
O           2.41010         0.54810        -0.05570
O           1.34760        -1.44010         0.43300
C          -1.21170        -0.23390         0.19750
C          -2.45440         0.63870        -0.02560
C          -3.76240        -0.12940         0.18620
C           0.06670         0.58590        -0.00380
C          -4.97230         0.77210        -0.00680
C           1.32040        -0.24880         0.15640
C           3.68040        -0.10010         0.06410
C           4.77650         0.91050        -0.19800
H          -1.23580        -0.67080         1.20280
H          -2.44590         1.02960        -1.05120
H          -2.42290         1.49870         0.65440
H           0.10190         1.40680         0.72060
H           0.08430         0.99620        -1.02080
H          -3.82640        -0.96800        -0.51630
H          -3.78500        -0.55020         1.19810
H          -4.95950         1.60380         0.70490
H          -4.99520         1.18630        -1.01980
H          -5.89550         0.20550         0.14970
H          -0.51610        -1.93640        -0.47460
H           3.78780        -0.50890         1.07510
H           3.74520        -0.91430        -0.66630
H           5.76360         0.44750        -0.11440
H           4.67180         1.34160        -1.19910
H           4.71370         1.74040         0.51360

