#Put Keywords Here, check Charge and Multiplicity.

 61177

0  1
O           2.52440         0.77450         0.00770
O           4.08360        -0.93670        -0.02410
C          -1.05420        -0.37000         0.02140
C          -2.40930         0.34290         0.00520
C           0.13630         0.58760         0.01470
C          -3.60070        -0.61530         0.03660
C           1.45960        -0.16620        -0.00180
C          -4.91960         0.13740        -0.05420
C           3.77990         0.24580        -0.00530
H          -0.99060        -1.03330        -0.85030
H          -0.99740        -1.01020         0.91060
H          -2.46930         1.02130         0.86530
H          -2.47000         0.96780        -0.89470
H           0.09900         1.24340         0.89340
H           0.08420         1.25080        -0.85770
H          -3.53160        -1.32090        -0.79930
H          -3.57950        -1.20330         0.96130
H           1.53500        -0.81090         0.88190
H           1.52740        -0.78560        -0.90400
H          -5.75880        -0.56470        -0.02770
H          -5.03220         0.83360         0.78290
H          -4.98310         0.70730        -0.98670
H           4.50700         1.07230         0.00390

