#Put Keywords Here, check Charge and Multiplicity.

 6590

0  1
O           2.19440        -1.05730        -0.29090
O           1.61610         0.94920        -0.32860
C           0.60010        -0.38940         1.29790
C          -0.87510        -0.12210         0.88890
C           1.00940         0.45210         2.53870
C           1.50790        -0.15790         0.18040
H           0.66280        -1.44270         1.59290
H          -1.15760        -0.75000         0.04000
H          -1.54770        -0.35710         1.71890
H          -1.01810         0.92450         0.61320
H           2.03600         0.22300         2.83570
H           0.35570         0.22290         3.38520
H           0.93680         1.52010         2.32460
H           2.15540        -1.87150         0.03710

