#Put Keywords Here, check Charge and Multiplicity.

 8141

0  1
C           0.00540         0.37340        -0.03880
C          -1.25420        -0.49590        -0.02700
C           1.27250        -0.48280        -0.00380
C          -2.52040         0.36360        -0.02890
C           2.53100         0.38610         0.01820
C          -3.81120        -0.45720         0.01430
C           3.79720        -0.47000         0.01920
C          -5.07150         0.39350         0.03970
C           5.05130         0.38940         0.00700
H           0.01020         1.00270        -0.93710
H          -0.00540         1.04610         0.82750
H          -1.25710        -1.15590        -0.90270
H          -1.25060        -1.13750         0.86240
H           1.25780        -1.12750         0.88340
H           1.29340        -1.14060        -0.88120
H          -2.52760         0.99660        -0.92490
H          -2.49940         1.03920         0.83530
H           2.52010         1.02910         0.90680
H           2.53570         1.04600        -0.85800
H          -3.80250        -1.10070         0.90220
H          -3.84840        -1.12050        -0.85810
H           3.80990        -1.11450         0.90580
H           3.80430        -1.12600        -0.85900
H          -5.13370         1.02480        -0.85220
H          -5.96050        -0.24410         0.06940
H          -5.08680         1.04190         0.92130
H           5.94430        -0.24330         0.00920
H           5.09140         1.03700         0.88860
H           5.08520         1.02150        -0.88600

