#Put Keywords Here, check Charge and Multiplicity.

 5284499

0  1
O           6.37650        -0.52810        -0.61730
C           0.43130        -2.43960         0.38610
C          -0.97120        -1.82620         0.34850
C          -1.56960         3.09310        -0.40680
C          -2.78300         2.22100        -0.73550
C           1.53600        -1.44920         0.00050
C          -2.07760        -2.84400         0.65140
C          -0.32200         2.27980        -0.04110
C          -3.25270         1.35510         0.43880
C           2.95700        -2.01920        -0.03230
C           0.91330         3.14720         0.21720
C          -3.50230        -2.28090         0.63680
C          -4.51280         0.52070         0.18700
C           4.02230        -0.96170        -0.33390
C           2.17390         2.33140         0.51540
C          -3.90440        -1.74040        -0.70480
C          -4.35480        -0.49380        -0.90980
C           5.42840        -1.54970        -0.34460
C           3.41190         3.18460         0.74440
H           0.63130        -2.83150         1.39070
H           0.46870        -3.29390        -0.30090
H          -1.13750        -1.37710        -0.63740
H          -1.01670        -1.01720         1.08600
H          -1.81830         3.77150         0.41810
H          -1.34650         3.72150        -1.27750
H          -3.60670         2.87380        -1.04920
H          -2.54080         1.58350        -1.59400
H           1.30600        -1.02360        -0.98440
H           1.50800        -0.61670         0.71330
H          -0.51090         1.68510         0.85920
H          -0.10350         1.57320        -0.85120
H          -1.89190        -3.28520         1.63900
H          -2.01010        -3.66830        -0.07060
H          -3.45290         2.01350         1.29400
H          -2.44990         0.68460         0.75320
H           3.17640        -2.48520         0.93620
H           3.00690        -2.81430        -0.78600
H           0.71130         3.82260         1.05770
H           1.09740         3.77970        -0.66000
H          -4.19640        -3.09120         0.89210
H          -3.58020        -1.54820         1.44360
H          -5.33090         1.19420        -0.10050
H          -4.85150         0.06050         1.12120
H           3.97770        -0.16160         0.41460
H           3.81860        -0.48340        -1.29980
H           2.36630         1.65280        -0.32320
H           2.00340         1.71020         1.40220
H          -3.82830        -2.41170        -1.55650
H          -4.61380        -0.18740        -1.91960
H           5.66870        -1.99390         0.62680
H           5.51820        -2.32060        -1.11670
H           3.27020         3.85600         1.59710
H           3.63540         3.79230        -0.13810
H           4.27920         2.54940         0.94980
H           7.25470        -0.94560        -0.61460

