#Put Keywords Here, check Charge and Multiplicity.

 3776

0  1
O          -0.00040         1.35720        -0.12420
C           0.00000         0.01770         0.36010
C          -1.25990        -0.68780        -0.11790
C           1.26030        -0.68710        -0.11790
H          -0.00010         0.06460         1.45400
H          -1.30790        -1.71390         0.25900
H          -2.15070        -0.14840         0.22130
H          -1.30610        -0.71380        -1.21220
H           1.30890        -1.71320         0.25900
H           2.15080        -0.14710         0.22130
H           1.30660        -0.71310        -1.21220
H          -0.00060         1.32420        -1.09610

